@<TRIPOS>MOLECULE
RNA_ligand.pdb
 1138 1225 0 0 0
SMALL
GASTEIGER

@<TRIPOS>ATOM
      1  P         30.6140    2.2540    9.1820 P.3     3  A3          0.5404
      2  OP1       30.2400    1.9570    7.7790 O.2     3  A3         -0.2272
      3  OP2       30.1080    3.4890    9.8220 O.2     3  A3         -0.2272
      4  O5'       30.1720    1.0010   10.0920 O.3     3  A3         -0.2856
      5  C5'       30.4950   -0.3220    9.7220 C.3     3  A3          0.0873
      6  C4'       30.0660   -1.2990   10.8140 C.3     3  A3          0.1141
      7  O4'       30.7990   -1.1150   12.0170 O.3     3  A3         -0.3456
      8  C3'       28.5970   -1.1740   11.1910 C.3     3  A3          0.1241
      9  O3'       27.7160   -1.7820   10.2660 O.3     3  A3         -0.3187
     10  C2'       28.6100   -1.8680   12.5440 C.3     3  A3          0.1292
     11  O2'       28.7000   -3.2710   12.3890 O.3     3  A3         -0.3846
     12  C1'       29.9290   -1.3440   13.1160 C.3     3  A3          0.1665
     13  N9        29.6910   -0.0770   13.8420 N.ar    3  A3         -0.2877
     14  C8        29.9180    1.2100   13.4300 C.ar    3  A3          0.0999
     15  N7        29.5980    2.1170   14.3140 N.ar    3  A3         -0.2346
     16  C5        29.1220    1.3720   15.3900 C.ar    3  A3          0.1287
     17  C6        28.6120    1.7190   16.6540 C.3     3  A3          0.2004
     18  N6        28.4850    2.9790   17.0810 N.3     3  A3         -0.2985
     19  N1        28.2310    0.7330   17.4770 N.2     3  A3         -0.2420
     20  C2        28.3450   -0.5230   17.0710 C.2     3  A3          0.1049
     21  N3        28.7990   -0.9830   15.9170 N.pl3   3  A3         -0.1840
     22  C4        29.1780    0.0330   15.1110 C.ar    3  A3          0.1528
     23  H5'       31.5690   -0.4080    9.5580 H       3  A3          0.0592
     24 H5''       29.9730   -0.5700    8.7970 H       3  A3          0.0592
     25  H4'       30.2430   -2.3170   10.4650 H       3  A3          0.0647
     26  H3'       28.3490   -0.1200   11.3230 H       3  A3          0.0655
     27  H2'       27.7530   -1.5940   13.1590 H       3  A3          0.0666
     28 HO2'       28.8100   -3.6760   13.2520 H       3  A3          0.2101
     29  H1'       30.3540   -2.0770   13.8020 H       3  A3          0.0866
     30  H8        30.3350    1.4520   12.4640 H       3  A3          0.1030
     31  H61       28.1080    3.1610   18.0000 H       3  A3          0.1209
     32  H62       28.7730    3.7420   16.4850 H       3  A3          0.1209
     33  H2        28.0210   -1.2750   17.7760 H       3  A3          0.1015
     34  P         26.1950   -1.2730   10.1550 P.3     4  A4          0.2131
     35  OP1       25.5500   -1.9860    9.0250 O.2     4  A4         -0.5172
     36  OP2       26.1870    0.2060   10.1780 O.3     4  A4         -0.4373
     37  O5'       25.5230   -1.7970   11.5220 O.3     4  A4         -0.3248
     38  C5'       25.3150   -3.1750   11.7560 C.3     4  A4          0.0837
     39  C4'       24.7150   -3.3800   13.1470 C.3     4  A4          0.1139
     40  O4'       25.5980   -3.0180   14.1940 O.3     4  A4         -0.3456
     41  C3'       23.4520   -2.5640   13.3660 C.3     4  A4          0.1241
     42  O3'       22.3330   -3.0880   12.6890 O.3     4  A4         -0.3187
     43  C2'       23.3540   -2.6670   14.8800 C.3     4  A4          0.1292
     44  O2'       22.9410   -3.9560   15.2880 O.3     4  A4         -0.3846
     45  C1'       24.8230   -2.4960   15.2660 C.3     4  A4          0.1665
     46  N9        25.1040   -1.0600   15.4540 N.ar    4  A4         -0.2877
     47  C8        25.7060   -0.1750   14.5950 C.ar    4  A4          0.0999
     48  N7        25.7780    1.0460   15.0520 N.ar    4  A4         -0.2346
     49  C5        25.1930    0.9590   16.3140 C.ar    4  A4          0.1287
     50  C6        24.9490    1.8990   17.3360 C.3     4  A4          0.2004
     51  N6        25.2740    3.1920   17.2500 N.3     4  A4         -0.2985
     52  N1        24.3550    1.4730   18.4570 N.2     4  A4         -0.2420
     53  C2        24.0200    0.1970   18.5660 C.2     4  A4          0.1049
     54  N3        24.1850   -0.7820   17.6920 N.pl3   4  A4         -0.1840
     55  C4        24.7880   -0.3240   16.5680 C.ar    4  A4          0.1528
     56  H5'       26.2600   -3.7150   11.6940 H       4  A4          0.0591
     57 H5''       24.6270   -3.5680   11.0080 H       4  A4          0.0591
     58  H4'       24.4460   -4.4290   13.2690 H       4  A4          0.0647
     59  H3'       23.6330   -1.5290   13.0760 H       4  A4          0.0655
     60  H2'       22.7220   -1.8880   15.3080 H       4  A4          0.0666
     61 HO2'       22.0410   -4.1020   14.9900 H       4  A4          0.2101
     62  H1'       25.0270   -3.0290   16.1950 H       4  A4          0.0866
     63  H8        26.0860   -0.4680   13.6270 H       4  A4          0.1030
     64  H61       25.0580    3.8190   18.0120 H       4  A4          0.1209
     65  H62       25.7310    3.5390   16.4190 H       4  A4          0.1209
     66  H2        23.5440   -0.0840   19.4930 H       4  A4          0.1015
     67  P         21.1000   -2.1330   12.3020 P.3     5  U5          0.2131
     68  OP1       20.1660   -2.9020   11.4490 O.2     5  U5         -0.5172
     69  OP2       21.6380   -0.8470   11.8130 O.3     5  U5         -0.4373
     70  O5'       20.4100   -1.8820   13.7320 O.3     5  U5         -0.3248
     71  C5'       19.8160   -2.9480   14.4360 C.3     5  U5          0.0837
     72  C4'       19.2790   -2.4690   15.7840 C.3     5  U5          0.1139
     73  O4'       20.3040   -2.0160   16.6510 O.3     5  U5         -0.3456
     74  C3'       18.3280   -1.2930   15.6300 C.3     5  U5          0.1241
     75  O3'       17.0740   -1.6720   15.0950 O.3     5  U5         -0.3187
     76  C2'       18.2960   -0.8250   17.0750 C.3     5  U5          0.1293
     77  O2'       17.5320   -1.6960   17.8880 O.3     5  U5         -0.3846
     78  C1'       19.7720   -0.9680   17.4530 C.3     5  U5          0.1680
     79  N1        20.4710    0.3100   17.1720 N.ar    5  U5         -0.2715
     80  C2        20.3090    1.3460   18.0860 C.ar    5  U5          0.3314
     81  O2        19.6560    1.2190   19.1200 O.2     5  U5         -0.2464
     82  N3        20.9240    2.5460   17.7730 N.ar    5  U5         -0.2749
     83  C4        21.6910    2.8000   16.6510 C.ar    5  U5          0.2539
     84  O4        22.1810    3.9110   16.4660 O.2     5  U5         -0.2677
     85  C5        21.8350    1.6620   15.7710 C.ar    5  U5          0.0192
     86  C6        21.2420    0.4810   16.0510 C.ar    5  U5          0.0171
     87  H5'       20.5420   -3.7460   14.5930 H       5  U5          0.0591
     88 H5''       18.9910   -3.3440   13.8430 H       5  U5          0.0591
     89  H4'       18.7570   -3.2860   16.2810 H       5  U5          0.0647
     90  H3'       18.7950   -0.5290   15.0080 H       5  U5          0.0655
     91  H2'       17.9590    0.2070   17.1680 H       5  U5          0.0666
     92 HO2'       16.6120   -1.6400   17.6150 H       5  U5          0.2101
     93  H1'       19.8640   -1.2090   18.5120 H       5  U5          0.0867
     94  H3        20.8020    3.3130   18.4180 H       5  U5          0.1734
     95  H5        22.4320    1.7560   14.8760 H       5  U5          0.0686
     96  H6        21.3770   -0.3530   15.3770 H       5  U5          0.0813
     97  P         16.1250   -0.5830   14.3790 P.3     6  U6          0.2131
     98  OP1       15.1310   -1.2990   13.5510 O.2     6  U6         -0.5172
     99  OP2       16.9850    0.4460   13.7530 O.3     6  U6         -0.4373
    100  O5'       15.3630    0.0860   15.6210 O.3     6  U6         -0.3248
    101  C5'       14.4700   -0.6770   16.4000 C.3     6  U6          0.0837
    102  C4'       13.9720    0.1180   17.6050 C.3     6  U6          0.1139
    103  O4'       15.0440    0.4870   18.4660 O.3     6  U6         -0.3456
    104  C3'       13.2310    1.4050   17.2710 C.3     6  U6          0.1241
    105  O3'       11.8640    1.2010   16.9700 O.3     6  U6         -0.3187
    106  C2'       13.4030    2.1730   18.5730 C.3     6  U6          0.1293
    107  O2'       12.5430    1.6720   19.5740 O.3     6  U6         -0.3846
    108  C1'       14.8360    1.8100   18.9500 C.3     6  U6          0.1680
    109  N1        15.7890    2.7760   18.3430 N.ar    6  U6         -0.2715
    110  C2        15.8550    4.0500   18.8930 C.ar    6  U6          0.3314
    111  O2        15.1640    4.3910   19.8530 O.2     6  U6         -0.2464
    112  N3        16.7460    4.9350   18.3060 N.ar    6  U6         -0.2749
    113  C4        17.5700    4.6590   17.2270 C.ar    6  U6          0.2539
    114  O4        18.3250    5.5140   16.7720 O.2     6  U6         -0.2677
    115  C5        17.4420    3.3130   16.7200 C.ar    6  U6          0.0192
    116  C6        16.5820    2.4340   17.2790 C.ar    6  U6          0.0171
    117  H5'       14.9750   -1.5780   16.7490 H       6  U6          0.0591
    118 H5''       13.6200   -0.9690   15.7830 H       6  U6          0.0591
    119  H4'       13.2860   -0.5300   18.1510 H       6  U6          0.0647
    120  H3'       13.7370    1.9240   16.4570 H       6  U6          0.0655
    121  H2'       13.2680    3.2460   18.4340 H       6  U6          0.0666
    122 HO2'       12.5330    2.2920   20.3080 H       6  U6          0.2101
    123  H1'       14.9450    1.8330   20.0340 H       6  U6          0.0867
    124  H3        16.8010    5.8650   18.6960 H       6  U6          0.1734
    125  H5        18.0520    3.0100   15.8820 H       6  U6          0.0686
    126  H6        16.5140    1.4330   16.8770 H       6  U6          0.0813
    127  P         11.0580    2.2580   16.0620 P.3     7  A7          0.2131
    128  OP1        9.6920    1.7240   15.8570 O.3     7  A7         -0.4373
    129  OP2       11.8930    2.5880   14.8850 O.2     7  A7         -0.5172
    130  O5'       10.9560    3.5740   16.9830 O.3     7  A7         -0.3248
    131  C5'       10.2100    3.5720   18.1880 C.3     7  A7          0.0837
    132  C4'       10.3240    4.9330   18.8840 C.3     7  A7          0.1139
    133  O4'       11.6500    5.2090   19.3030 O.3     7  A7         -0.3456
    134  C3'        9.9050    6.0790   17.9740 C.3     7  A7          0.1241
    135  O3'        8.5010    6.2480   17.9280 O.3     7  A7         -0.3187
    136  C2'       10.6230    7.2410   18.6470 C.3     7  A7          0.1292
    137  O2'        9.9340    7.6710   19.8030 O.3     7  A7         -0.3846
    138  C1'       11.9310    6.5820   19.0740 C.3     7  A7          0.1665
    139  N9        12.9500    6.7100   18.0100 N.ar    7  A7         -0.2877
    140  C8        13.3870    5.7660   17.1160 C.ar    7  A7          0.0999
    141  N7        14.2990    6.1950   16.2890 N.ar    7  A7         -0.2346
    142  C5        14.4830    7.5250   16.6650 C.ar    7  A7          0.1287
    143  C6        15.3160    8.5560   16.1910 C.3     7  A7          0.2004
    144  N6        16.1680    8.4010   15.1740 N.3     7  A7         -0.2985
    145  N1        15.2550    9.7500   16.7940 N.2     7  A7         -0.2420
    146  C2        14.4110    9.9200   17.8030 C.2     7  A7          0.1049
    147  N3        13.5750    9.0430   18.3420 N.pl3   7  A7         -0.1840
    148  C4        13.6670    7.8470   17.7140 C.ar    7  A7          0.1528
    149  H5'       10.5670    2.7880   18.8570 H       7  A7          0.0591
    150 H5''        9.1620    3.3820   17.9580 H       7  A7          0.0591
    151  H4'        9.6820    4.9470   19.7650 H       7  A7          0.0647
    152  H3'       10.3160    5.9200   16.9770 H       7  A7          0.0655
    153  H2'       10.7930    8.0730   17.9640 H       7  A7          0.0666
    154 HO2'       10.3980    8.4250   20.1760 H       7  A7          0.2101
    155  H1'       12.3110    7.0570   19.9780 H       7  A7          0.0866
    156  H8        13.0100    4.7550   17.1040 H       7  A7          0.1030
    157  H61       16.7420    9.1790   14.8770 H       7  A7          0.1209
    158  H62       16.2400    7.5090   14.7060 H       7  A7          0.1209
    159  H2        14.4010   10.9040   18.2480 H       7  A7          0.1015
    160  P          7.7940    6.9450   16.6650 P.3     8  U8          0.2131
    161  OP1        6.3290    6.8380   16.8550 O.3     8  U8         -0.4373
    162  OP2        8.4060    6.4140   15.4290 O.2     8  U8         -0.5172
    163  O5'        8.2000    8.4950   16.7970 O.3     8  U8         -0.3248
    164  C5'        7.7240    9.2740   17.8720 C.3     8  U8          0.0837
    165  C4'        8.3530   10.6700   17.8360 C.3     8  U8          0.1139
    166  O4'        9.7550   10.6390   18.0620 O.3     8  U8         -0.3456
    167  C3'        8.1560   11.3750   16.5010 C.3     8  U8          0.1241
    168  O3'        6.8640   11.9160   16.3260 O.3     8  U8         -0.3187
    169  C2'        9.2280   12.4460   16.6230 C.3     8  U8          0.1293
    170  O2'        8.8260   13.4710   17.5110 O.3     8  U8         -0.3846
    171  C1'       10.3610   11.6590   17.2750 C.3     8  U8          0.1680
    172  N1        11.2430   11.0750   16.2370 N.ar    8  U8         -0.2715
    173  C2        12.1920   11.9100   15.6620 C.ar    8  U8          0.3314
    174  O2        12.3150   13.0900   15.9850 O.2     8  U8         -0.2464
    175  N3        13.0030   11.3450   14.6930 N.ar    8  U8         -0.2749
    176  C4        12.9540   10.0340   14.2530 C.ar    8  U8          0.2539
    177  O4        13.7250    9.6370   13.3840 O.2     8  U8         -0.2677
    178  C5        11.9390    9.2360   14.9020 C.ar    8  U8          0.0192
    179  C6        11.1340    9.7650   15.8540 C.ar    8  U8          0.0171
    180  H5'        7.9750    8.7920   18.8170 H       8  U8          0.0591
    181 H5''        6.6390    9.3580   17.8030 H       8  U8          0.0591
    182  H4'        7.8950   11.2800   18.6140 H       8  U8          0.0647
    183  H3'        8.4010   10.6880   15.6910 H       8  U8          0.0655
    184  H2'        9.5190   12.8480   15.6530 H       8  U8          0.0666
    185 HO2'        8.0370   13.8880   17.1610 H       8  U8          0.2101
    186  H1'       10.9480   12.3290   17.9040 H       8  U8          0.0867
    187  H3        13.6910   11.9470   14.2620 H       8  U8          0.1734
    188  H5        11.8290    8.1980   14.6200 H       8  U8          0.0686
    189  H6        10.3900    9.1370   16.3220 H       8  U8          0.0813
    190  P          6.2730   12.1510   14.8460 P.3     9  C9          0.2131
    191  OP1        4.8780   12.6280   14.9830 O.3     9  C9         -0.4373
    192  OP2        6.5570   10.9440   14.0370 O.2     9  C9         -0.5172
    193  O5'        7.1550   13.3600   14.2540 O.3     9  C9         -0.3248
    194  C5'        7.0860   14.6570   14.8080 C.3     9  C9          0.0837
    195  C4'        8.0780   15.5850   14.1070 C.3     9  C9          0.1139
    196  O4'        9.4300   15.2120   14.3350 O.3     9  C9         -0.3456
    197  C3'        7.8970   15.6150   12.5940 C.3     9  C9          0.1241
    198  O3'        6.8020   16.4080   12.1800 O.3     9  C9         -0.3187
    199  C2'        9.2450   16.1910   12.1860 C.3     9  C9          0.1293
    200  O2'        9.2990   17.5850   12.4320 O.3     9  C9         -0.3846
    201  C1'       10.1830   15.4820   13.1610 C.3     9  C9          0.1680
    202  N1        10.6960   14.2260   12.5550 N.ar    9  C9         -0.2700
    203  C2        11.7250   14.3390   11.6310 C.ar    9  C9          0.3522
    204  O2        12.1770   15.4420   11.3300 O.2     9  C9         -0.2444
    205  N3        12.2250   13.2120   11.0600 N.ar    9  C9         -0.1783
    206  C4        11.7350   12.0140   11.3870 C.ar    9  C9          0.1230
    207  N4        12.2570   10.9370   10.8000 N.pl3   9  C9         -0.3430
    208  C5        10.6730   11.8740   12.3370 C.ar    9  C9         -0.0056
    209  C6        10.1850   13.0040   12.8950 C.ar    9  C9          0.0152
    210  H5'        7.3200   14.6200   15.8730 H       9  C9          0.0591
    211 H5''        6.0750   15.0430   14.6770 H       9  C9          0.0591
    212  H4'        7.9340   16.5990   14.4790 H       9  C9          0.0647
    213  H3'        7.7980   14.5970   12.2170 H       9  C9          0.0655
    214  H2'        9.4850   15.9650   11.1470 H       9  C9          0.0666
    215 HO2'       10.1520   17.9170   12.1440 H       9  C9          0.2101
    216  H1'       11.0280   16.1300   13.3900 H       9  C9          0.0867
    217  H41       13.0080   11.0470   10.1330 H       9  C9          0.1437
    218  H42       11.9000   10.0200   11.0300 H       9  C9          0.1437
    219  H5        10.2570   10.9170   12.6150 H       9  C9          0.0666
    220  H6         9.3900   12.9410   13.6220 H       9  C9          0.0812
    221  P          6.0820   16.1310   10.7700 P.3    10  U10         0.2131
    222  OP1        4.9010   17.0230   10.6710 O.3    10  U10        -0.4373
    223  OP2        5.9040   14.6710   10.6150 O.2    10  U10        -0.5172
    224  O5'        7.1730   16.6280    9.6940 O.3    10  U10        -0.3248
    225  C5'        7.5330   17.9860    9.6010 C.3    10  U10         0.0837
    226  C4'        8.6700   18.1650    8.5940 C.3    10  U10         0.1139
    227  O4'        9.8730   17.5420    9.0200 O.3    10  U10        -0.3456
    228  C3'        8.3600   17.5820    7.2230 C.3    10  U10         0.1241
    229  O3'        7.4930   18.3830    6.4470 O.3    10  U10        -0.3187
    230  C2'        9.7650   17.5070    6.6470 C.3    10  U10         0.1293
    231  O2'       10.2380   18.7800    6.2480 O.3    10  U10        -0.3846
    232  C1'       10.5580   17.0520    7.8690 C.3    10  U10         0.1680
    233  N1        10.6410   15.5700    7.8870 N.ar   10  U10        -0.2715
    234  C2        11.6010   14.9750    7.0780 C.ar   10  U10         0.3314
    235  O2        12.3640   15.6270    6.3680 O.2    10  U10        -0.2464
    236  N3        11.6630   13.5940    7.1070 N.ar   10  U10        -0.2749
    237  C4        10.8570   12.7600    7.8620 C.ar   10  U10         0.2539
    238  O4        11.0000   11.5400    7.8040 O.2    10  U10        -0.2677
    239  C5         9.8880   13.4580    8.6780 C.ar   10  U10         0.0192
    240  C6         9.8080   14.8100    8.6670 C.ar   10  U10         0.0171
    241  H5'        7.8510   18.3560   10.5760 H      10  U10         0.0591
    242 H5''        6.6700   18.5620    9.2670 H      10  U10         0.0591
    243  H4'        8.8600   19.2320    8.4730 H      10  U10         0.0647
    244  H3'        7.9500   16.5810    7.3480 H      10  U10         0.0655
    245  H2'        9.8350   16.7900    5.8290 H      10  U10         0.0666
    246 HO2'       10.1880   19.3850    6.9920 H      10  U10         0.2101
    247  H1'       11.5640   17.4670    7.8280 H      10  U10         0.0867
    248  H3        12.3600   13.1530    6.5230 H      10  U10         0.1734
    249  H5         9.2180   12.8860    9.3020 H      10  U10         0.0686
    250  H6         9.0760   15.2980    9.2920 H      10  U10         0.0813
    251  P          6.6040   17.7230    5.2790 P.3    11  A11         0.2131
    252  OP1        5.7140   18.7730    4.7300 O.2    11  A11        -0.5172
    253  OP2        6.0140   16.4670    5.7970 O.3    11  A11        -0.4373
    254  O5'        7.6860   17.3420    4.1470 O.3    11  A11        -0.3248
    255  C5'        8.3990   18.3520    3.4660 C.3    11  A11         0.0837
    256  C4'        9.4460   17.7330    2.5380 C.3    11  A11         0.1139
    257  O4'       10.4660   17.0530    3.2600 O.3    11  A11        -0.3456
    258  C3'        8.8740   16.7210    1.5550 C.3    11  A11         0.1241
    259  O3'        8.2200   17.3080    0.4480 O.3    11  A11        -0.3187
    260  C2'       10.1540   15.9920    1.1610 C.3    11  A11         0.1292
    261  O2'       10.9410   16.7720    0.2840 O.3    11  A11        -0.3846
    262  C1'       10.8670   15.9170    2.5070 C.3    11  A11         0.1665
    263  N9        10.4930   14.6720    3.2100 N.ar   11  A11        -0.2877
    264  C8         9.6070   14.4940    4.2400 C.ar   11  A11         0.0999
    265  N7         9.5000   13.2570    4.6450 N.ar   11  A11        -0.2346
    266  C5        10.3870   12.5670    3.8210 C.ar   11  A11         0.1287
    267  C6        10.7640   11.2130    3.7240 C.3    11  A11         0.2004
    268  N6        10.2800   10.2490    4.5110 N.3    11  A11        -0.2985
    269  N1        11.6600   10.8720    2.7890 N.2    11  A11        -0.2420
    270  C2        12.1570   11.8090    1.9950 C.2    11  A11         0.1049
    271  N3        11.8940   13.1060    1.9800 N.pl3  11  A11        -0.1840
    272  C4        10.9900   13.4210    2.9370 C.ar   11  A11         0.1528
    273  H5'        8.8980   19.0030    4.1840 H      11  A11         0.0591
    274 H5''        7.7030   18.9450    2.8750 H      11  A11         0.0591
    275  H4'        9.9140   18.5350    1.9660 H      11  A11         0.0647
    276  H3'        8.2000   16.0450    2.0840 H      11  A11         0.0655
    277  H2'        9.9490   15.0040    0.7480 H      11  A11         0.0666
    278 HO2'       10.4330   16.9420   -0.5130 H      11  A11         0.2101
    279  H1'       11.9460   15.9210    2.3520 H      11  A11         0.0866
    280  H8         9.0490   15.3090    4.6780 H      11  A11         0.1030
    281  H61       10.5940    9.2970    4.3880 H      11  A11         0.1209
    282  H62        9.6050   10.4780    5.2260 H      11  A11         0.1209
    283  H2        12.8740   11.4720    1.2620 H      11  A11         0.1015
    284  P          7.0880   16.4920   -0.3590 P.3    12  U12         0.2131
    285  OP1        6.5010   17.4040   -1.3690 O.2    12  U12        -0.5172
    286  OP2        6.2010   15.8250    0.6210 O.3    12  U12        -0.4373
    287  O5'        7.9230   15.3540   -1.1360 O.3    12  U12        -0.3248
    288  C5'        8.8440   15.6940   -2.1500 C.3    12  U12         0.0837
    289  C4'        9.5670   14.4460   -2.6650 C.3    12  U12         0.1139
    290  O4'       10.3780   13.8380   -1.6700 O.3    12  U12        -0.3456
    291  C3'        8.6150   13.3550   -3.1380 C.3    12  U12         0.1241
    292  O3'        8.0420   13.6170   -4.4010 O.3    12  U12        -0.3187
    293  C2'        9.5720   12.1710   -3.1550 C.3    12  U12         0.1293
    294  O2'       10.4380   12.2350   -4.2710 O.3    12  U12        -0.3846
    295  C1'       10.3860   12.4300   -1.8880 C.3    12  U12         0.1680
    296  N1         9.7740   11.7140   -0.7410 N.ar   12  U12        -0.2715
    297  C2        10.0370   10.3520   -0.6310 C.ar   12  U12         0.3314
    298  O2        10.7480    9.7480   -1.4310 O.2    12  U12        -0.2464
    299  N3         9.4480    9.6950    0.4340 N.ar   12  U12        -0.2749
    300  C4         8.6250   10.2670    1.3870 C.ar   12  U12         0.2539
    301  O4         8.1410    9.5840    2.2860 O.2    12  U12        -0.2677
    302  C5         8.4170   11.6870    1.2070 C.ar   12  U12         0.0192
    303  C6         8.9850   12.3560    0.1780 C.ar   12  U12         0.0171
    304  H5'        9.5800   16.4010   -1.7680 H      12  U12         0.0591
    305 H5''        8.3110   16.1660   -2.9760 H      12  U12         0.0591
    306  H4'       10.2050   14.7270   -3.5030 H      12  U12         0.0647
    307  H3'        7.8440   13.1920   -2.3840 H      12  U12         0.0655
    308  H2'        9.0440   11.2180   -3.1180 H      12  U12         0.0666
    309 HO2'       11.0350   11.4830   -4.2490 H      12  U12         0.2101
    310  H1'       11.4030   12.0690   -2.0340 H      12  U12         0.0867
    311  H3         9.6320    8.7060    0.5270 H      12  U12         0.1734
    312  H5         7.7980   12.2200    1.9140 H      12  U12         0.0686
    313  H6         8.8100   13.4160    0.0780 H      12  U12         0.0813
    314  P          6.6390   12.9460   -4.8070 P.3    13  U13         0.2131
    315  OP1        6.2250   13.5110   -6.1090 O.2    13  U13        -0.5172
    316  OP2        5.7180   13.0310   -3.6480 O.3    13  U13        -0.4373
    317  O5'        7.0260   11.4000   -5.0340 O.3    13  U13        -0.3248
    318  C5'        7.8840   11.0160   -6.0870 C.3    13  U13         0.0837
    319  C4'        8.1670    9.5160   -6.0310 C.3    13  U13         0.1139
    320  O4'        8.8870    9.1380   -4.8710 O.3    13  U13        -0.3456
    321  C3'        6.8980    8.6750   -6.0180 C.3    13  U13         0.1241
    322  O3'        6.2780    8.5770   -7.2860 O.3    13  U13        -0.3187
    323  C2'        7.4690    7.3530   -5.5280 C.3    13  U13         0.1293
    324  O2'        8.1710    6.6800   -6.5580 O.3    13  U13        -0.3846
    325  C1'        8.4750    7.8330   -4.4830 C.3    13  U13         0.1680
    326  N1         7.8500    7.8480   -3.1400 N.ar   13  U13        -0.2715
    327  C2         7.7590    6.6370   -2.4690 C.ar   13  U13         0.3314
    328  O2         8.1870    5.5840   -2.9420 O.2    13  U13        -0.2464
    329  N3         7.1530    6.6660   -1.2250 N.ar   13  U13        -0.2749
    330  C4         6.6360    7.7820   -0.5990 C.ar   13  U13         0.2539
    331  O4         6.1110    7.6930    0.5090 O.2    13  U13        -0.2677
    332  C5         6.7770    9.0020   -1.3670 C.ar   13  U13         0.0192
    333  C6         7.3700    9.0010   -2.5810 C.ar   13  U13         0.0171
    334  H5'        8.8220   11.5670   -6.0240 H      13  U13         0.0591
    335 H5''        7.4070   11.2500   -7.0390 H      13  U13         0.0591
    336  H4'        8.7590    9.2340   -6.9010 H      13  U13         0.0647
    337  H3'        6.2020    9.0800   -5.2820 H      13  U13         0.0655
    338  H2'        6.7000    6.7170   -5.0890 H      13  U13         0.0666
    339 HO2'        8.5130    5.8530   -6.2100 H      13  U13         0.2101
    340  H1'        9.3330    7.1590   -4.4640 H      13  U13         0.0867
    341  H3         7.0810    5.7900   -0.7270 H      13  U13         0.1734
    342  H5         6.4000    9.9270   -0.9560 H      13  U13         0.0686
    343  H6         7.4680    9.9300   -3.1240 H      13  U13         0.0813
    344  P          4.7080    8.2600   -7.4020 P.3    14  C14         0.2131
    345  OP1        4.3260    8.3370   -8.8300 O.2    14  C14        -0.5172
    346  OP2        3.9860    9.0860   -6.4080 O.3    14  C14        -0.4373
    347  O5'        4.6030    6.7230   -6.9370 O.3    14  C14        -0.3248
    348  C5'        5.1890    5.6970   -7.7090 C.3    14  C14         0.0837
    349  C4'        5.0640    4.3520   -6.9950 C.3    14  C14         0.1139
    350  O4'        5.8060    4.3000   -5.7860 O.3    14  C14        -0.3456
    351  C3'        3.6300    4.0130   -6.6250 C.3    14  C14         0.1241
    352  O3'        2.8550    3.5600   -7.7190 O.3    14  C14        -0.3187
    353  C2'        3.8900    2.9210   -5.6010 C.3    14  C14         0.1293
    354  O2'        4.2740    1.7150   -6.2290 O.3    14  C14        -0.3846
    355  C1'        5.1030    3.4760   -4.8630 C.3    14  C14         0.1680
    356  N1         4.6740    4.2540   -3.6770 N.ar   14  C14        -0.2700
    357  C2         4.3850    3.5400   -2.5210 C.ar   14  C14         0.3522
    358  O2         4.5100    2.3170   -2.4960 O.2    14  C14        -0.2444
    359  N3         3.9630    4.2140   -1.4170 N.ar   14  C14        -0.1783
    360  C4         3.8410    5.5450   -1.4420 C.ar   14  C14         0.1230
    361  N4         3.4260    6.1670   -0.3380 N.pl3  14  C14        -0.3430
    362  C5         4.1480    6.3030   -2.6160 C.ar   14  C14        -0.0056
    363  C6         4.5620    5.6170   -3.7050 C.ar   14  C14         0.0152
    364  H5'        6.2430    5.9180   -7.8790 H      14  C14         0.0591
    365 H5''        4.6800    5.6440   -8.6710 H      14  C14         0.0591
    366  H4'        5.4360    3.5710   -7.6580 H      14  C14         0.0647
    367  H3'        3.1670    4.8750   -6.1460 H      14  C14         0.0655
    368  H2'        3.0380    2.7760   -4.9360 H      14  C14         0.0666
    369 HO2'        3.5570    1.4210   -6.7940 H      14  C14         0.2101
    370  H1'        5.7310    2.6480   -4.5350 H      14  C14         0.0867
    371  H41        3.2010    5.6270    0.4860 H      14  C14         0.1437
    372  H42        3.3370    7.1730   -0.3340 H      14  C14         0.1437
    373  H5         4.0610    7.3780   -2.6620 H      14  C14         0.0666
    374  H6         4.8060    6.1510   -4.6110 H      14  C14         0.0812
    375  P          1.2540    3.7090   -7.7010 P.3    15  C15         0.2131
    376  OP1        0.7420    3.2800   -9.0250 O.2    15  C15        -0.5172
    377  OP2        0.9140    5.0570   -7.1910 O.3    15  C15        -0.4373
    378  O5'        0.7800    2.6220   -6.6120 O.3    15  C15        -0.3248
    379  C5'        0.9680    1.2400   -6.8390 C.3    15  C15         0.0837
    380  C4'        0.5610    0.4270   -5.6130 C.3    15  C15         0.1139
    381  O4'        1.3880    0.6930   -4.4930 O.3    15  C15        -0.3456
    382  C3'       -0.8630    0.7060   -5.1480 C.3    15  C15         0.1241
    383  O3'       -1.8480    0.0840   -5.9480 O.3    15  C15        -0.3187
    384  C2'       -0.7900    0.1390   -3.7380 C.3    15  C15         0.1293
    385  O2'       -0.8370   -1.2720   -3.7430 O.3    15  C15        -0.3846
    386  C1'        0.6090    0.5720   -3.3100 C.3    15  C15         0.1680
    387  N1         0.5370    1.8630   -2.5850 N.ar   15  C15        -0.2700
    388  C2         0.1440    1.8270   -1.2530 C.ar   15  C15         0.3522
    389  O2        -0.1210    0.7620   -0.7040 O.2    15  C15        -0.2444
    390  N3         0.0560    2.9960   -0.5650 N.ar   15  C15        -0.1783
    391  C4         0.3470    4.1560   -1.1570 C.ar   15  C15         0.1230
    392  N4         0.2380    5.2790   -0.4470 N.pl3  15  C15        -0.3430
    393  C5         0.7640    4.2160   -2.5250 C.ar   15  C15        -0.0056
    394  C6         0.8460    3.0480   -3.1980 C.ar   15  C15         0.0152
    395  H5'        2.0150    1.0380   -7.0650 H      15  C15         0.0591
    396 H5''        0.3610    0.9330   -7.6910 H      15  C15         0.0591
    397  H4'        0.6400   -0.6350   -5.8480 H      15  C15         0.0647
    398  H3'       -1.0260    1.7830   -5.1100 H      15  C15         0.0655
    399  H2'       -1.5600    0.5610   -3.0920 H      15  C15         0.0666
    400 HO2'       -0.8490   -1.5780   -2.8330 H      15  C15         0.2101
    401  H1'        1.0330   -0.1840   -2.6500 H      15  C15         0.0867
    402  H41       -0.0560    5.2300    0.5180 H      15  C15         0.1437
    403  H42        0.4530    6.1680   -0.8730 H      15  C15         0.1437
    404  H5         1.0130    5.1430   -3.0200 H      15  C15         0.0666
    405  H6         1.1600    3.0470   -4.2310 H      15  C15         0.0812
    406  P         -3.3780    0.5690   -5.8990 P.3    16  G16         0.2131
    407  OP1       -4.1100   -0.1040   -6.9970 O.2    16  G16        -0.5172
    408  OP2       -3.3950    2.0460   -5.8150 O.3    16  G16        -0.4373
    409  O5'       -3.9160   -0.0240   -4.5020 O.3    16  G16        -0.3248
    410  C5'       -4.0080   -1.4180   -4.2990 C.3    16  G16         0.0837
    411  C4'       -4.4330   -1.7270   -2.8620 C.3    16  G16         0.1139
    412  O4'       -3.4950   -1.2570   -1.9040 O.3    16  G16        -0.3456
    413  C3'       -5.7710   -1.1030   -2.4830 C.3    16  G16         0.1241
    414  O3'       -6.8690   -1.8230   -3.0030 O.3    16  G16        -0.3187
    415  C2'       -5.6770   -1.1770   -0.9660 C.3    16  G16         0.1292
    416  O2'       -5.8920   -2.4970   -0.4970 O.3    16  G16        -0.3846
    417  C1'       -4.2070   -0.8150   -0.7540 C.3    16  G16         0.1667
    418  N9        -4.0670    0.6460   -0.6060 N.ar   16  G16        -0.2854
    419  C8        -3.6220    1.5650   -1.5200 C.ar   16  G16         0.1005
    420  N7        -3.6250    2.7940   -1.0820 N.ar   16  G16        -0.2286
    421  C5        -4.1030    2.6830    0.2190 C.ar   16  G16         0.1721
    422  C6        -4.3350    3.6880    1.2040 C.ar   16  G16         0.2803
    423  O6        -4.1580    4.9010    1.1170 O.2    16  G16        -0.2654
    424  N1        -4.8210    3.1550    2.3850 N.ar   16  G16        -0.2934
    425  C2        -5.0640    1.8200    2.6020 C.ar   16  G16         0.1950
    426  N2        -5.5360    1.4830    3.8030 N.pl3  16  G16        -0.3289
    427  N3        -4.8520    0.8690    1.6860 N.ar   16  G16        -0.1963
    428  C4        -4.3740    1.3700    0.5200 C.ar   16  G16         0.1712
    429  H5'       -3.0440   -1.8850   -4.4960 H      16  G16         0.0591
    430 H5''       -4.7440   -1.8270   -4.9920 H      16  G16         0.0591
    431  H4'       -4.5210   -2.8070   -2.7520 H      16  G16         0.0647
    432  H3'       -5.7910   -0.0640   -2.8110 H      16  G16         0.0655
    433  H2'       -6.3450   -0.4670   -0.4800 H      16  G16         0.0666
    434 HO2'       -5.8540   -2.4910    0.4620 H      16  G16         0.2101
    435  H1'       -3.8290   -1.3030    0.1450 H      16  G16         0.0866
    436  H8        -3.3020    1.2920   -2.5150 H      16  G16         0.1030
    437  H1        -5.0100    3.8040    3.1340 H      16  G16         0.1716
    438  H21       -5.6930    2.1950    4.5000 H      16  G16         0.1451
    439  H22       -5.7330    0.5140    4.0110 H      16  G16         0.1451
    440  P         -8.2890   -1.1040   -3.2440 P.3    17  U17         0.2131
    441  OP1       -9.1690   -2.0530   -3.9640 O.2    17  U17        -0.5172
    442  OP2       -8.0380    0.2370   -3.8230 O.3    17  U17        -0.4373
    443  O5'       -8.8640   -0.9110   -1.7540 O.3    17  U17        -0.3248
    444  C5'       -9.1960   -2.0290   -0.9580 C.3    17  U17         0.0837
    445  C4'       -9.6530   -1.5920    0.4340 C.3    17  U17         0.1139
    446  O4'       -8.6190   -0.9680    1.1830 O.3    17  U17        -0.3456
    447  C3'      -10.8070   -0.5970    0.4080 C.3    17  U17         0.1241
    448  O3'      -12.0550   -1.2040    0.1320 O.3    17  U17        -0.3187
    449  C2'      -10.7080   -0.0610    1.8270 C.3    17  U17         0.1293
    450  O2'      -11.1940   -1.0090    2.7590 O.3    17  U17        -0.3846
    451  C1'       -9.1930    0.0540    1.9910 C.3    17  U17         0.1680
    452  N1        -8.7240    1.3930    1.5540 N.ar   17  U17        -0.2715
    453  C2        -8.9360    2.4600    2.4160 C.ar   17  U17         0.3314
    454  O2        -9.4750    2.3250    3.5130 O.2    17  U17        -0.2464
    455  N3        -8.5060    3.7010    1.9810 N.ar   17  U17        -0.2749
    456  C4        -7.8850    3.9680    0.7730 C.ar   17  U17         0.2539
    457  O4        -7.5450    5.1130    0.4830 O.2    17  U17        -0.2677
    458  C5        -7.6930    2.8010   -0.0580 C.ar   17  U17         0.0192
    459  C6        -8.1070    1.5770    0.3450 C.ar   17  U17         0.0171
    460  H5'       -8.3320   -2.6860   -0.8660 H      17  U17         0.0591
    461 H5''      -10.0000   -2.5850   -1.4420 H      17  U17         0.0591
    462  H4'       -9.9830   -2.4730    0.9830 H      17  U17         0.0647
    463  H3'      -10.5900    0.1940   -0.3100 H      17  U17         0.0655
    464  H2'      -11.2100    0.9020    1.9360 H      17  U17         0.0666
    465 HO2'      -11.2020   -0.6170    3.6350 H      17  U17         0.2101
    466  H1'       -8.9280   -0.0920    3.0370 H      17  U17         0.0867
    467  H3        -8.6610    4.4880    2.5950 H      17  U17         0.1734
    468  H5        -7.2110    2.9120   -1.0170 H      17  U17         0.0686
    469  H6        -7.9470    0.7260   -0.3000 H      17  U17         0.0813
    470  P        -13.2700   -0.3480   -0.4860 P.3    18  A18         0.2131
    471  OP1      -14.3720   -1.2810   -0.8110 O.3    18  A18        -0.4373
    472  OP2      -12.7290    0.5360   -1.5450 O.2    18  A18        -0.5172
    473  O5'      -13.7330    0.5710    0.7530 O.3    18  A18        -0.3248
    474  C5'      -14.2950   -0.0110    1.9130 C.3    18  A18         0.0837
    475  C4'      -14.5280    1.0500    2.9860 C.3    18  A18         0.1139
    476  O4'      -13.3080    1.6330    3.4230 O.3    18  A18        -0.3456
    477  C3'      -15.4060    2.2080    2.5220 C.3    18  A18         0.1241
    478  O3'      -16.7860    1.8990    2.5330 O.3    18  A18        -0.3187
    479  C2'      -15.0330    3.2430    3.5760 C.3    18  A18         0.1292
    480  O2'      -15.6300    2.9410    4.8220 O.3    18  A18        -0.3846
    481  C1'      -13.5300    3.0080    3.6980 C.3    18  A18         0.1665
    482  N9       -12.8030    3.8370    2.7150 N.ar   18  A18        -0.2877
    483  C8       -12.2410    3.4620    1.5220 C.ar   18  A18         0.0999
    484  N7       -11.6750    4.4420    0.8690 N.ar   18  A18        -0.2346
    485  C5       -11.8770    5.5440    1.6960 C.ar   18  A18         0.1287
    486  C6       -11.5270    6.9010    1.5910 C.3    18  A18         0.2004
    487  N6       -10.8690    7.4100    0.5450 N.3    18  A18        -0.2985
    488  N1       -11.8700    7.7270    2.5850 N.2    18  A18        -0.2420
    489  C2       -12.5300    7.2390    3.6260 C.2    18  A18         0.1049
    490  N3       -12.9210    5.9930    3.8530 N.pl3  18  A18        -0.1840
    491  C4       -12.5580    5.1830    2.8290 C.ar   18  A18         0.1528
    492  H5'      -13.6200   -0.7720    2.3060 H      18  A18         0.0591
    493 H5''      -15.2440   -0.4830    1.6580 H      18  A18         0.0591
    494  H4'      -15.0110    0.5810    3.8430 H      18  A18         0.0647
    495  H3'      -15.0840    2.5420    1.5350 H      18  A18         0.0655
    496  H2'      -15.2690    4.2590    3.2600 H      18  A18         0.0666
    497 HO2'      -16.5840    2.9520    4.7190 H      18  A18         0.2101
    498  H1'      -13.1900    3.2620    4.7020 H      18  A18         0.0866
    499  H8       -12.2610    2.4450    1.1580 H      18  A18         0.1030
    500  H61      -10.6510    8.3960    0.5160 H      18  A18         0.1209
    501  H62      -10.5860    6.8090   -0.2160 H      18  A18         0.1209
    502  H2       -12.7750    7.9550    4.3970 H      18  A18         0.1015
    503  P        -17.8140    2.6840    1.5720 P.3    19  C19         0.2131
    504  OP1      -19.1510    2.0660    1.7350 O.3    19  C19        -0.4373
    505  OP2      -17.2140    2.7690    0.2230 O.2    19  C19        -0.5172
    506  O5'      -17.8690    4.1670    2.1910 O.3    19  C19        -0.3248
    507  C5'      -18.4070    4.4050    3.4730 C.3    19  C19         0.0837
    508  C4'      -18.2230    5.8760    3.8510 C.3    19  C19         0.1139
    509  O4'      -16.8480    6.2220    3.9780 O.3    19  C19        -0.3456
    510  C3'      -18.8050    6.8360    2.8230 C.3    19  C19         0.1241
    511  O3'      -20.2080    6.9940    2.9250 O.3    19  C19        -0.3187
    512  C2'      -18.0630    8.1040    3.2220 C.3    19  C19         0.1293
    513  O2'      -18.5890    8.6470    4.4170 O.3    19  C19        -0.3846
    514  C1'      -16.6720    7.5590    3.5230 C.3    19  C19         0.1680
    515  N1       -15.8400    7.6050    2.2950 N.ar   19  C19        -0.2700
    516  C2       -15.3110    8.8330    1.9230 C.ar   19  C19         0.3522
    517  O2       -15.5090    9.8350    2.6090 O.2    19  C19        -0.2444
    518  N3       -14.5710    8.9150    0.7880 N.ar   19  C19        -0.1783
    519  C4       -14.3430    7.8300    0.0450 C.ar   19  C19         0.1230
    520  N4       -13.6140    7.9590   -1.0620 N.pl3  19  C19        -0.3430
    521  C5       -14.8650    6.5490    0.4140 C.ar   19  C19        -0.0056
    522  C6       -15.5990    6.4850    1.5480 C.ar   19  C19         0.0152
    523  H5'      -17.9090    3.7770    4.2100 H      19  C19         0.0591
    524 H5''      -19.4700    4.1670    3.4660 H      19  C19         0.0591
    525  H4'      -18.7140    6.0610    4.8070 H      19  C19         0.0647
    526  H3'      -18.5220    6.5280    1.8160 H      19  C19         0.0655
    527  H2'      -18.0480    8.8410    2.4190 H      19  C19         0.0666
    528 HO2'      -19.5140    8.8630    4.2820 H      19  C19         0.2101
    529  H1'      -16.2030    8.1640    4.2980 H      19  C19         0.0867
    530  H41      -13.2530    8.8670   -1.3180 H      19  C19         0.1437
    531  H42      -13.4260    7.1540   -1.6430 H      19  C19         0.1437
    532  H5       -14.6880    5.6540   -0.1650 H      19  C19         0.0666
    533  H6       -16.0040    5.5340    1.8630 H      19  C19         0.0812
    534  P        -21.0740    7.4450    1.6430 P.3    20  U20         0.2131
    535  OP1      -22.4950    7.5100    2.0580 O.3    20  U20        -0.4373
    536  OP2      -20.6930    6.5800    0.5040 O.2    20  U20        -0.5172
    537  O5'      -20.5770    8.9420    1.3180 O.3    20  U20        -0.3248
    538  C5'      -20.8120   10.0090    2.2140 C.3    20  U20         0.0837
    539  C4'      -20.1440   11.2880    1.7080 C.3    20  U20         0.1139
    540  O4'      -18.7280   11.1770    1.6850 O.3    20  U20        -0.3456
    541  C3'      -20.5650   11.6640    0.2940 C.3    20  U20         0.1241
    542  O3'      -21.8200   12.3100    0.2360 O.3    20  U20        -0.3187
    543  C2'      -19.4230   12.5980   -0.0760 C.3    20  U20         0.1293
    544  O2'      -19.5620   13.8470    0.5720 O.3    20  U20        -0.3846
    545  C1'      -18.2320   11.8730    0.5440 C.3    20  U20         0.1680
    546  N1       -17.6340   10.9350   -0.4370 N.ar   20  U20        -0.2715
    547  C2       -16.8490   11.4800   -1.4440 C.ar   20  U20         0.3314
    548  O2       -16.6390   12.6890   -1.5360 O.2    20  U20        -0.2464
    549  N3       -16.3060   10.5910   -2.3550 N.ar   20  U20        -0.2749
    550  C4       -16.4840    9.2190   -2.3530 C.ar   20  U20         0.2539
    551  O4       -15.9600    8.5200   -3.2180 O.2    20  U20        -0.2677
    552  C5       -17.3070    8.7330   -1.2730 C.ar   20  U20         0.0192
    553  C6       -17.8450    9.5800   -0.3650 C.ar   20  U20         0.0171
    554  H5'      -20.4150    9.7590    3.1980 H      20  U20         0.0591
    555 H5''      -21.8860   10.1750    2.3030 H      20  U20         0.0591
    556  H4'      -20.4060   12.1100    2.3750 H      20  U20         0.0647
    557  H3'      -20.5460   10.7780   -0.3410 H      20  U20         0.0655
    558  H2'      -19.3200   12.7110   -1.1540 H      20  U20         0.0666
    559 HO2'      -20.3720   14.2630    0.2650 H      20  U20         0.2101
    560  H1'      -17.4790   12.6050    0.8340 H      20  U20         0.0867
    561  H3       -15.7240   10.9720   -3.0880 H      20  U20         0.1734
    562  H5       -17.4950    7.6730   -1.1860 H      20  U20         0.0686
    563  H6       -18.4450    9.1790    0.4370 H      20  U20         0.0813
    564  P        -22.7060   12.2640   -1.1090 P.3    21  U21         0.2131
    565  OP1      -24.0150   12.8900   -0.8120 O.3    21  U21        -0.4373
    566  OP2      -22.6650   10.8880   -1.6490 O.2    21  U21        -0.5172
    567  O5'      -21.9110   13.2270   -2.1260 O.3    21  U21        -0.3248
    568  C5'      -21.7990   14.6140   -1.8780 C.3    21  U21         0.0838
    569  C4'      -20.8950   15.2730   -2.9190 C.3    21  U21         0.1165
    570  O4'      -19.5550   14.8150   -2.8310 O.3    21  U21        -0.3455
    571  C3'      -21.3410   15.0110   -4.3530 C.3    21  U21         0.1518
    572  O3'      -22.4050   15.8460   -4.7570 O.3    21  U21        -0.2255
    573  C2'      -20.0510   15.3380   -5.0910 C.3    21  U21         0.1319
    574  O2'      -19.8610   16.7370   -5.1960 O.3    21  U21        -0.3845
    575  C1'      -18.9940   14.7720   -4.1380 C.3    21  U21         0.1681
    576  N1       -18.6670   13.3780   -4.5250 N.ar   21  U21        -0.2715
    577  C2       -17.7560   13.2050   -5.5580 C.ar   21  U21         0.3314
    578  O2       -17.2010   14.1500   -6.1200 O.2    21  U21        -0.2464
    579  N3       -17.4930   11.8990   -5.9350 N.ar   21  U21        -0.2749
    580  C4       -18.0480   10.7650   -5.3740 C.ar   21  U21         0.2539
    581  O4       -17.7550    9.6520   -5.8010 O.2    21  U21        -0.2677
    582  C5       -18.9660   11.0320   -4.2850 C.ar   21  U21         0.0192
    583  C6       -19.2410   12.3000   -3.9000 C.ar   21  U21         0.0171
    584  H5'      -21.3860   14.7830   -0.8830 H      21  U21         0.0591
    585 H5''      -22.7900   15.0630   -1.9310 H      21  U21         0.0591
    586  H4'      -20.8980   16.3520   -2.7570 H      21  U21         0.0648
    587  H3'      -21.5940   13.9590   -4.4860 H      21  U21         0.0683
    588  H2'      -20.0100   14.8570   -6.0680 H      21  U21         0.0667
    589 HO2'      -20.5630   17.1080   -5.7360 H      21  U21         0.2101
    590  H1'      -18.0880   15.3760   -4.1780 H      21  U21         0.0867
    591  H3       -16.8330   11.7630   -6.6860 H      21  U21         0.1734
    592  H5       -19.4320   10.2030   -3.7740 H      21  U21         0.0686
    593  H6       -19.9260   12.4710   -3.0820 H      21  U21         0.0813
    594  O5'      -10.2080   17.3990   -2.8900 O.3    22  G22        -0.2320
    595  C5'      -10.6780   18.6000   -2.3120 C.3    22  G22         0.1116
    596  C4'      -11.6120   18.3030   -1.1370 C.3    22  G22         0.1165
    597  O4'      -12.8150   17.6720   -1.5570 O.3    22  G22        -0.3455
    598  C3'      -10.9920   17.3860   -0.0920 C.3    22  G22         0.1242
    599  O3'      -10.1060   18.0520    0.7840 O.3    22  G22        -0.3187
    600  C2'      -12.2490   16.8930    0.6070 C.3    22  G22         0.1292
    601  O2'      -12.7910   17.8810    1.4640 O.3    22  G22        -0.3846
    602  C1'      -13.1820   16.7020   -0.5850 C.3    22  G22         0.1667
    603  N9       -13.0060   15.3440   -1.1330 N.ar   22  G22        -0.2854
    604  C8       -12.3990   14.9530   -2.2980 C.ar   22  G22         0.1005
    605  N7       -12.4080   13.6640   -2.4960 N.ar   22  G22        -0.2286
    606  C5       -13.0690   13.1610   -1.3770 C.ar   22  G22         0.1721
    607  C6       -13.3820   11.8170   -1.0210 C.ar   22  G22         0.2803
    608  O6       -13.1340   10.7830   -1.6390 O.2    22  G22        -0.2654
    609  N1       -14.0510   11.7430    0.1900 N.ar   22  G22        -0.2934
    610  C2       -14.3970   12.8280    0.9640 C.ar   22  G22         0.1950
    611  N2       -15.0510   12.5730    2.0990 N.pl3  22  G22        -0.3289
    612  N3       -14.1100   14.0930    0.6380 N.ar   22  G22        -0.1963
    613  C4       -13.4440   14.1840   -0.5410 C.ar   22  G22         0.1712
    614  H5'      -11.2140   19.1820   -3.0600 H      22  G22         0.0618
    615 H5''       -9.8270   19.1790   -1.9530 H      22  G22         0.0618
    616  H4'      -11.8750   19.2440   -0.6540 H      22  G22         0.0648
    617  H3'      -10.4900   16.5540   -0.5860 H      22  G22         0.0655
    618  H2'      -12.0790   15.9580    1.1420 H      22  G22         0.0666
    619 HO2'      -13.5660   17.5210    1.9010 H      22  G22         0.2101
    620  H1'      -14.2180   16.8350   -0.2730 H      22  G22         0.0866
    621  H8       -11.9530   15.6530   -2.9890 H      22  G22         0.1030
    622  H1       -14.3000   10.8230    0.5220 H      22  G22         0.1716
    623  H21      -15.2620   11.6200    2.3600 H      22  G22         0.1451
    624  H22      -15.3280   13.3370    2.6990 H      22  G22         0.1451
    625  P         -8.9400   17.2430    1.5440 P.3    23  U23         0.2131
    626  OP1       -8.1190   18.2200    2.2950 O.3    23  U23        -0.4373
    627  OP2       -8.2870   16.3490    0.5620 O.2    23  U23        -0.5172
    628  O5'       -9.7260   16.3280    2.6090 O.3    23  U23        -0.3248
    629  C5'      -10.4420   16.9110    3.6770 C.3    23  U23         0.0837
    630  C4'      -11.1270   15.8300    4.5120 C.3    23  U23         0.1139
    631  O4'      -12.1240   15.1230    3.7860 O.3    23  U23        -0.3456
    632  C3'      -10.1670   14.7640    5.0250 C.3    23  U23         0.1241
    633  O3'       -9.3970   15.1900    6.1310 O.3    23  U23        -0.3187
    634  C2'      -11.1560   13.6690    5.3900 C.3    23  U23         0.1293
    635  O2'      -11.8450   13.9760    6.5860 O.3    23  U23        -0.3846
    636  C1'      -12.1290   13.7650    4.2160 C.3    23  U23         0.1680
    637  N1       -11.6810   12.8590    3.1330 N.ar   23  U23        -0.2715
    638  C2       -11.8840   11.4980    3.3100 C.ar   23  U23         0.3314
    639  O2       -12.4380   11.0390    4.3090 O.2    23  U23        -0.2464
    640  N3       -11.4290   10.6690    2.3010 N.ar   23  U23        -0.2749
    641  C4       -10.7920   11.0770    1.1440 C.ar   23  U23         0.2539
    642  O4       -10.4100   10.2510    0.3180 O.2    23  U23        -0.2677
    643  C5       -10.6410   12.5080    1.0270 C.ar   23  U23         0.0192
    644  C6       -11.0830   13.3390    1.9960 C.ar   23  U23         0.0171
    645  H5'      -11.1920   17.6010    3.2900 H      23  U23         0.0591
    646 H5''       -9.7510   17.4680    4.3090 H      23  U23         0.0591
    647  H4'      -11.6010   16.2970    5.3760 H      23  U23         0.0647
    648  H3'       -9.5260   14.4300    4.2090 H      23  U23         0.0655
    649  H2'      -10.6760   12.6920    5.4490 H      23  U23         0.0666
    650 HO2'      -12.4440   13.2540    6.7920 H      23  U23         0.2101
    651  H1'      -13.1290   13.4630    4.5310 H      23  U23         0.0867
    652  H3       -11.5790    9.6780    2.4190 H      23  U23         0.1734
    653  H5       -10.1660   12.9150    0.1460 H      23  U23         0.0686
    654  H6       -10.9630   14.4060    1.8750 H      23  U23         0.0813
    655  P         -7.9830   14.4990    6.4540 P.3    24  A24         0.2131
    656  OP1       -7.3440   15.2550    7.5560 O.3    24  A24        -0.4373
    657  OP2       -7.2500   14.3190    5.1770 O.2    24  A24        -0.5172
    658  O5'       -8.3940   13.0410    7.0090 O.3    24  A24        -0.3248
    659  C5'       -9.0940   12.9030    8.2280 C.3    24  A24         0.0837
    660  C4'       -9.4430   11.4360    8.4850 C.3    24  A24         0.1139
    661  O4'      -10.3530   10.9160    7.5260 O.3    24  A24        -0.3456
    662  C3'       -8.2290   10.5190    8.4440 C.3    24  A24         0.1241
    663  O3'       -7.4350   10.5780    9.6130 O.3    24  A24        -0.3187
    664  C2'       -8.9380    9.1770    8.2900 C.3    24  A24         0.1292
    665  O2'       -9.5540    8.7790    9.4980 O.3    24  A24        -0.3846
    666  C1'      -10.0300    9.5490    7.2880 C.3    24  A24         0.1665
    667  N9        -9.5210    9.3840    5.9130 N.ar   24  A24        -0.2877
    668  C8        -9.1020   10.3490    5.0300 C.ar   24  A24         0.0999
    669  N7        -8.6830    9.8790    3.8860 N.ar   24  A24        -0.2346
    670  C5        -8.8440    8.5000    4.0230 C.ar   24  A24         0.1287
    671  C6        -8.5780    7.4090    3.1720 C.3    24  A24         0.2004
    672  N6        -8.0610    7.5430    1.9480 N.3    24  A24        -0.2985
    673  N1        -8.8520    6.1740    3.6140 N.2    24  A24        -0.2420
    674  C2        -9.3620    6.0250    4.8260 C.2    24  A24         0.1049
    675  N3        -9.6580    6.9540    5.7240 N.pl3  24  A24        -0.1840
    676  C4        -9.3660    8.1920    5.2480 C.ar   24  A24         0.1528
    677  H5'      -10.0140   13.4870    8.1900 H      24  A24         0.0591
    678 H5''       -8.4720   13.2680    9.0450 H      24  A24         0.0591
    679  H4'       -9.9010   11.3530    9.4700 H      24  A24         0.0647
    680  H3'       -7.6330   10.7350    7.5570 H      24  A24         0.0655
    681  H2'       -8.2750    8.4060    7.8990 H      24  A24         0.0666
    682 HO2'       -8.8790    8.6790   10.1740 H      24  A24         0.2101
    683  H1'      -10.9020    8.9110    7.4340 H      24  A24         0.0866
    684  H8        -9.1180   11.4040    5.2610 H      24  A24         0.1030
    685  H61       -7.8830    6.7210    1.3890 H      24  A24         0.1209
    686  H62       -7.8510    8.4630    1.5870 H      24  A24         0.1209
    687  H2        -9.5680    5.0090    5.1280 H      24  A24         0.1015
    688  P         -5.8760   10.1860    9.5560 P.3    25  C25         0.2131
    689  OP1       -5.2860   10.4460   10.8890 O.3    25  C25        -0.4373
    690  OP2       -5.2830   10.8270    8.3590 O.2    25  C25        -0.5172
    691  O5'       -5.8860    8.5970    9.3170 O.3    25  C25        -0.3248
    692  C5'       -6.3930    7.7250   10.3000 C.3    25  C25         0.0837
    693  C4'       -6.3510    6.2760    9.8090 C.3    25  C25         0.1139
    694  O4'       -7.2080    6.0480    8.6970 O.3    25  C25        -0.3456
    695  C3'       -4.9720    5.8130    9.3640 C.3    25  C25         0.1241
    696  O3'       -4.0990    5.5330   10.4400 O.3    25  C25        -0.3187
    697  C2'       -5.3580    4.5740    8.5670 C.3    25  C25         0.1293
    698  O2'       -5.7280    3.4930    9.4030 O.3    25  C25        -0.3846
    699  C1'       -6.6110    5.0720    7.8480 C.3    25  C25         0.1680
    700  N1        -6.2220    5.6560    6.5440 N.ar   25  C25        -0.2700
    701  C2        -5.8860    4.7750    5.5250 C.ar   25  C25         0.3522
    702  O2        -5.9580    3.5590    5.6980 O.2    25  C25        -0.2444
    703  N3        -5.4780    5.2780    4.3310 N.ar   25  C25        -0.1783
    704  C4        -5.4100    6.5980    4.1410 C.ar   25  C25         0.1230
    705  N4        -4.9810    7.0410    2.9600 N.pl3  25  C25        -0.3430
    706  C5        -5.7830    7.5260    5.1630 C.ar   25  C25        -0.0056
    707  C6        -6.1860    7.0120    6.3460 C.ar   25  C25         0.0152
    708  H5'       -7.4240    7.9910   10.5340 H      25  C25         0.0591
    709 H5''       -5.7940    7.8130   11.2050 H      25  C25         0.0591
    710  H4'       -6.6780    5.6270   10.6210 H      25  C25         0.0647
    711  H3'       -4.5360    6.5620    8.7030 H      25  C25         0.0655
    712  H2'       -4.5760    4.2780    7.8680 H      25  C25         0.0666
    713 HO2'       -6.4330    3.7890    9.9820 H      25  C25         0.2101
    714  H1'       -7.2910    4.2370    7.6820 H      25  C25         0.0867
    715  H41       -4.7150    6.3790    2.2450 H      25  C25         0.1437
    716  H42       -4.9230    8.0340    2.7860 H      25  C25         0.1437
    717  H5        -5.7510    8.5970    5.0260 H      25  C25         0.0666
    718  H6        -6.4850    7.6710    7.1460 H      25  C25         0.0812
    719  P         -2.5070    5.4950   10.2220 P.3    26  G26         0.2131
    720  OP1       -1.8650    5.3910   11.5520 O.3    26  G26        -0.4373
    721  OP2       -2.1300    6.6040    9.3180 O.2    26  G26        -0.5172
    722  O5'       -2.3000    4.1050    9.4410 O.3    26  G26        -0.3248
    723  C5'       -2.5860    2.8740   10.0720 C.3    26  G26         0.0837
    724  C4'       -2.4450    1.7130    9.0910 C.3    26  G26         0.1139
    725  O4'       -3.3260    1.8490    7.9850 O.3    26  G26        -0.3456
    726  C3'       -1.0560    1.5580    8.4940 C.3    26  G26         0.1241
    727  O3'       -0.1470    0.9340    9.3730 O.3    26  G26        -0.3187
    728  C2'       -1.3790    0.6950    7.2830 C.3    26  G26         0.1292
    729  O2'       -1.6490   -0.6430    7.6560 O.3    26  G26        -0.3846
    730  C1'       -2.6770    1.3510    6.8200 C.3    26  G26         0.1667
    731  N9        -2.3610    2.4590    5.8930 N.ar   26  G26        -0.2854
    732  C8        -2.4200    3.8100    6.1110 C.ar   26  G26         0.1005
    733  N7        -2.0490    4.5310    5.0850 N.ar   26  G26        -0.2286
    734  C5        -1.7270    3.5860    4.1130 C.ar   26  G26         0.1721
    735  C6        -1.2540    3.7590    2.7790 C.ar   26  G26         0.2803
    736  O6        -1.0110    4.8040    2.1810 O.2    26  G26        -0.2654
    737  N1        -1.0620    2.5470    2.1360 N.ar   26  G26        -0.2934
    738  C2        -1.2870    1.3150    2.6980 C.ar   26  G26         0.1950
    739  N2        -1.0410    0.2520    1.9340 N.pl3  26  G26        -0.3289
    740  N3        -1.7280    1.1410    3.9490 N.ar   26  G26        -0.1963
    741  C4        -1.9250    2.3170    4.5970 C.ar   26  G26         0.1712
    742  H5'       -3.6050    2.8920   10.4610 H      26  G26         0.0591
    743 H5''       -1.8970    2.7330   10.9050 H      26  G26         0.0591
    744  H4'       -2.6920    0.7870    9.6120 H      26  G26         0.0647
    745  H3'       -0.6880    2.5340    8.1760 H      26  G26         0.0655
    746  H2'       -0.5980    0.7540    6.5250 H      26  G26         0.0666
    747 HO2'       -1.8230   -1.1510    6.8610 H      26  G26         0.2101
    748  H1'       -3.3060    0.6190    6.3130 H      26  G26         0.0866
    749  H8        -2.7420    4.2390    7.0470 H      26  G26         0.1030
    750  H1        -0.7350    2.5870    1.1810 H      26  G26         0.1716
    751  H21       -0.7070    0.3780    0.9900 H      26  G26         0.1451
    752  H22       -1.1910   -0.6770    2.2990 H      26  G26         0.1451
    753  P          1.4340    1.1620    9.2030 P.3    27  G27         0.2131
    754  OP1        2.1020    0.5590   10.3770 O.3    27  G27        -0.4373
    755  OP2        1.6710    2.5900    8.8770 O.2    27  G27        -0.5172
    756  O5'        1.8140    0.2890    7.9070 O.3    27  G27        -0.3248
    757  C5'        1.7000   -1.1160    7.9180 C.3    27  G27         0.0837
    758  C4'        2.1150   -1.6740    6.5590 C.3    27  G27         0.1139
    759  O4'        1.2380   -1.2630    5.5180 O.3    27  G27        -0.3456
    760  C3'        3.5090   -1.2110    6.1530 C.3    27  G27         0.1241
    761  O3'        4.5400   -1.9470    6.7790 O.3    27  G27        -0.3187
    762  C2'        3.4330   -1.4490    4.6520 C.3    27  G27         0.1292
    763  O2'        3.5220   -2.8250    4.3370 O.3    27  G27        -0.3846
    764  C1'        2.0140   -0.9760    4.3620 C.3    27  G27         0.1667
    765  N9         2.0110    0.4760    4.0990 N.ar   27  G27        -0.2854
    766  C8         1.6100    1.5040    4.9130 C.ar   27  G27         0.1005
    767  N7         1.7460    2.6890    4.3810 N.ar   27  G27        -0.2286
    768  C5         2.2730    2.4310    3.1170 C.ar   27  G27         0.1721
    769  C6         2.6380    3.3270    2.0700 C.ar   27  G27         0.2803
    770  O6         2.5690    4.5550    2.0530 O.2    27  G27        -0.2654
    771  N1         3.1260    2.6570    0.9630 N.ar   27  G27        -0.2934
    772  C2         3.2540    1.2920    0.8680 C.ar   27  G27         0.1950
    773  N2         3.7400    0.8120   -0.2740 N.pl3  27  G27        -0.3289
    774  N3         2.9160    0.4400    1.8420 N.ar   27  G27        -0.1963
    775  C4         2.4350    1.0790    2.9370 C.ar   27  G27         0.1712
    776  H5'        0.6700   -1.4050    8.1320 H      27  G27         0.0591
    777 H5''        2.3520   -1.5270    8.6870 H      27  G27         0.0591
    778  H4'        2.1130   -2.7630    6.6020 H      27  G27         0.0647
    779  H3'        3.6140   -0.1460    6.3550 H      27  G27         0.0655
    780  H2'        4.1750   -0.8660    4.1070 H      27  G27         0.0666
    781 HO2'        4.3830   -3.1520    4.6100 H      27  G27         0.2101
    782  H1'        1.6170   -1.4970    3.4900 H      27  G27         0.0866
    783  H8         1.2130    1.3480    5.9040 H      27  G27         0.1030
    784  H1         3.4020    3.2190    0.1710 H      27  G27         0.1716
    785  H21        4.0140    1.4390   -1.0180 H      27  G27         0.1451
    786  H22        3.8340   -0.1850   -0.4040 H      27  G27         0.1451
    787  P          6.0030   -1.2990    6.9810 P.3    28  A28         0.2131
    788  OP1        6.7860   -2.2080    7.8520 O.3    28  A28        -0.4373
    789  OP2        5.8340    0.1170    7.3770 O.2    28  A28        -0.5172
    790  O5'        6.6530   -1.3370    5.5090 O.3    28  A28        -0.3248
    791  C5'        6.9510   -2.5640    4.8800 C.3    28  A28         0.0837
    792  C4'        7.4960   -2.3070    3.4750 C.3    28  A28         0.1139
    793  O4'        6.5260   -1.7300    2.6100 O.3    28  A28        -0.3456
    794  C3'        8.6930   -1.3690    3.4670 C.3    28  A28         0.1241
    795  O3'        9.8990   -2.0040    3.8370 O.3    28  A28        -0.3187
    796  C2'        8.6730   -0.9140    2.0150 C.3    28  A28         0.1292
    797  O2'        9.1880   -1.9130    1.1550 O.3    28  A28        -0.3846
    798  C1'        7.1700   -0.7850    1.7670 C.3    28  A28         0.1665
    799  N9         6.7110    0.5790    2.1020 N.ar   28  A28        -0.2877
    800  C8         6.0520    1.0190    3.2210 C.ar   28  A28         0.0999
    801  N7         5.7830    2.2950    3.2160 N.ar   28  A28        -0.2346
    802  C5         6.3030    2.7350    1.9990 C.ar   28  A28         0.1287
    803  C6         6.3550    3.9940    1.3710 C.3    28  A28         0.2004
    804  N6         5.8450    5.1080    1.9040 N.3    28  A28        -0.2985
    805  N1         6.9460    4.0790    0.1710 N.2    28  A28        -0.2420
    806  C2         7.4510    2.9840   -0.3770 C.2    28  A28         0.1049
    807  N3         7.4720    1.7500    0.1000 N.pl3  28  A28        -0.1840
    808  C4         6.8710    1.6940    1.3140 C.ar   28  A28         0.1528
    809  H5'        6.0520   -3.1780    4.8140 H      28  A28         0.0591
    810 H5''        7.7040   -3.0960    5.4600 H      28  A28         0.0591
    811  H4'        7.8080   -3.2590    3.0450 H      28  A28         0.0647
    812  H3'        8.4870   -0.5210    4.1200 H      28  A28         0.0655
    813  H2'        9.1970    0.0340    1.8840 H      28  A28         0.0666
    814 HO2'        9.1720   -1.5810    0.2540 H      28  A28         0.2101
    815  H1'        6.9400   -0.9870    0.7210 H      28  A28         0.0866
    816  H8         5.7750    0.3610    4.0330 H      28  A28         0.1030
    817  H61        5.9140    5.9840    1.4060 H      28  A28         0.1209
    818  H62        5.3860    5.0690    2.8030 H      28  A28         0.1209
    819  H2         7.9110    3.1120   -1.3460 H      28  A28         0.1015
    820  P         11.1190   -1.1470    4.4480 P.3    29  A29         0.2131
    821  OP1       12.1920   -2.0930    4.8350 O.2    29  A29        -0.5172
    822  OP2       10.5700   -0.2140    5.4580 O.3    29  A29        -0.4373
    823  O5'       11.6340   -0.2860    3.1900 O.3    29  A29        -0.3248
    824  C5'       12.2120   -0.9290    2.0740 C.3    29  A29         0.0837
    825  C4'       12.5030    0.0740    0.9570 C.3    29  A29         0.1139
    826  O4'       11.3140    0.6350    0.4200 O.3    29  A29        -0.3456
    827  C3'       13.3650    1.2460    1.3990 C.3    29  A29         0.1241
    828  O3'       14.7400    0.9310    1.4890 O.3    29  A29        -0.3187
    829  C2'       13.0640    2.2200    0.2680 C.3    29  A29         0.1292
    830  O2'       13.7340    1.8420   -0.9170 O.3    29  A29        -0.3846
    831  C1'       11.5690    1.9890    0.0690 C.3    29  A29         0.1665
    832  N9        10.8000    2.8970    0.9410 N.ar   29  A29        -0.2877
    833  C8        10.1790    2.6320    2.1360 C.ar   29  A29         0.0999
    834  N7         9.5810    3.6660    2.6680 N.ar   29  A29        -0.2346
    835  C5         9.8180    4.6890    1.7520 C.ar   29  A29         0.1287
    836  C6         9.4540    6.0460    1.7060 C.3    29  A29         0.2004
    837  N6         8.7320    6.6530    2.6510 N.3    29  A29        -0.2985
    838  N1         9.8530    6.7770    0.6570 N.2    29  A29        -0.2420
    839  C2        10.5740    6.1960   -0.2950 C.2    29  A29         0.1049
    840  N3        10.9850    4.9390   -0.3770 N.pl3  29  A29        -0.1840
    841  C4        10.5620    4.2280    0.6970 C.ar   29  A29         0.1528
    842  H5'       11.5320   -1.6960    1.7030 H      29  A29         0.0591
    843 H5''       13.1450   -1.4010    2.3830 H      29  A29         0.0591
    844  H4'       13.0290   -0.4440    0.1540 H      29  A29         0.0647
    845  H3'       12.9880    1.6360    2.3450 H      29  A29         0.0655
    846  H2'       13.2870    3.2520    0.5420 H      29  A29         0.0666
    847 HO2'       14.6810    1.9120   -0.7730 H      29  A29         0.2101
    848  H1'       11.3050    2.1830   -0.9710 H      29  A29         0.0866
    849  H8        10.1830    1.6550    2.5950 H      29  A29         0.1030
    850  H61        8.5040    7.6330    2.5570 H      29  A29         0.1209
    851  H62        8.4220    6.1290    3.4570 H      29  A29         0.1209
    852  H2        10.8670    6.8370   -1.1140 H      29  A29         0.1015
    853  P         15.7100    1.7800    2.4520 P.3    30  U30         0.2131
    854  OP1       17.0320    1.1150    2.4550 O.2    30  U30        -0.5172
    855  OP2       15.0130    2.0190    3.7360 O.3    30  U30        -0.4373
    856  O5'       15.8630    3.1860    1.6880 O.3    30  U30        -0.3248
    857  C5'       16.5140    3.2670    0.4350 C.3    30  U30         0.0837
    858  C4'       16.4470    4.6920   -0.1110 C.3    30  U30         0.1139
    859  O4'       15.1160    5.0990   -0.3990 O.3    30  U30        -0.3456
    860  C3'       16.9960    5.7310    0.8560 C.3    30  U30         0.1241
    861  O3'       18.4070    5.7640    0.9100 O.3    30  U30        -0.3187
    862  C2'       16.3900    6.9890    0.2510 C.3    30  U30         0.1293
    863  O2'       17.0710    7.3760   -0.9270 O.3    30  U30        -0.3846
    864  C1'       14.9950    6.4900   -0.1250 C.3    30  U30         0.1680
    865  N1        14.0570    6.7320    0.9990 N.ar   30  U30        -0.2715
    866  C2        13.5730    8.0240    1.1550 C.ar   30  U30         0.3314
    867  O2        13.8810    8.9410    0.3990 O.2    30  U30        -0.2464
    868  N3        12.7150    8.2380    2.2200 N.ar   30  U30        -0.2749
    869  C4        12.3040    7.2840    3.1340 C.ar   30  U30         0.2539
    870  O4        11.5470    7.5900    4.0520 O.2    30  U30        -0.2677
    871  C5        12.8390    5.9650    2.8890 C.ar   30  U30         0.0192
    872  C6        13.6780    5.7310    1.8540 C.ar   30  U30         0.0171
    873  H5'       16.0480    2.5870   -0.2780 H      30  U30         0.0591
    874 H5''       17.5570    2.9780    0.5570 H      30  U30         0.0591
    875  H4'       17.0260    4.7460   -1.0330 H      30  U30         0.0647
    876  H3'       16.5820    5.5550    1.8490 H      30  U30         0.0655
    877  H2'       16.3480    7.8050    0.9720 H      30  U30         0.0666
    878 HO2'       16.6720    8.1780   -1.2700 H      30  U30         0.2101
    879  H1'       14.6380    7.0210   -1.0060 H      30  U30         0.0867
    880  H3        12.3570    9.1740    2.3490 H      30  U30         0.1734
    881  H5        12.5570    5.1530    3.5430 H      30  U30         0.0686
    882  H6        14.0610    4.7340    1.6950 H      30  U30         0.0813
    883  P         19.1620    6.3290    2.2150 P.3    31  A31         0.2131
    884  OP1       20.6100    6.0650    2.0570 O.2    31  A31        -0.5172
    885  OP2       18.4580    5.8250    3.4160 O.3    31  A31        -0.4373
    886  O5'       18.9270    7.9180    2.1260 O.3    31  A31        -0.3248
    887  C5'       19.4910    8.6810    1.0840 C.3    31  A31         0.0837
    888  C4'       19.0090   10.1290    1.1700 C.3    31  A31         0.1139
    889  O4'       17.6110   10.2490    0.9550 O.3    31  A31        -0.3456
    890  C3'       19.2760   10.7670    2.5290 C.3    31  A31         0.1241
    891  O3'       20.6150   11.1730    2.7150 O.3    31  A31        -0.3187
    892  C2'       18.3130   11.9440    2.4480 C.3    31  A31         0.1292
    893  O2'       18.7970   12.9490    1.5800 O.3    31  A31        -0.3846
    894  C1'       17.1080   11.2780    1.7960 C.3    31  A31         0.1665
    895  N9        16.2290   10.6950    2.8320 N.ar   31  A31        -0.2877
    896  C8        16.1000    9.3860    3.2250 C.ar   31  A31         0.0999
    897  N7        15.2300    9.1970    4.1770 N.ar   31  A31        -0.2346
    898  C5        14.7490   10.4770    4.4360 C.ar   31  A31         0.1287
    899  C6        13.7960   10.9870    5.3390 C.3    31  A31         0.2004
    900  N6        13.1230   10.2250    6.2040 N.3    31  A31        -0.2985
    901  N1        13.5530   12.3050    5.3320 N.2    31  A31        -0.2420
    902  C2        14.2180   13.0760    4.4830 C.2    31  A31         0.1049
    903  N3        15.1350   12.7350    3.5900 N.pl3  31  A31        -0.1840
    904  C4        15.3510   11.3970    3.6200 C.ar   31  A31         0.1528
    905  H5'       19.2000    8.2660    0.1190 H      31  A31         0.0591
    906 H5''       20.5770    8.6650    1.1720 H      31  A31         0.0591
    907  H4'       19.5190   10.7200    0.4090 H      31  A31         0.0647
    908  H3'       18.9650   10.0810    3.3180 H      31  A31         0.0655
    909  H2'       18.0740   12.3510    3.4310 H      31  A31         0.0666
    910 HO2'       19.6150   13.3000    1.9400 H      31  A31         0.2101
    911  H1'       16.5410   12.0100    1.2200 H      31  A31         0.0866
    912  H8        16.6690    8.5820    2.7810 H      31  A31         0.1030
    913  H61       12.4460   10.6430    6.8270 H      31  A31         0.1209
    914  H62       13.2990    9.2310    6.2330 H      31  A31         0.1209
    915  H2        13.9780   14.1280    4.5240 H      31  A31         0.1015
    916  P         21.2280   11.3070    4.1980 P.3    32  G32         0.2131
    917  OP1       22.6840   11.5470    4.0680 O.2    32  G32        -0.5172
    918  OP2       20.7510   10.1610    5.0000 O.3    32  G32        -0.4373
    919  O5'       20.5520   12.6480    4.7830 O.3    32  G32        -0.3248
    920  C5'       20.8460   13.9130    4.2260 C.3    32  G32         0.0837
    921  C4'       19.9920   14.9970    4.8820 C.3    32  G32         0.1139
    922  O4'       18.6110   14.8310    4.6000 O.3    32  G32        -0.3456
    923  C3'       20.1070   15.0340    6.4000 C.3    32  G32         0.1241
    924  O3'       21.2880   15.6590    6.8630 O.3    32  G32        -0.3187
    925  C2'       18.8580   15.8400    6.7320 C.3    32  G32         0.1292
    926  O2'       19.0260   17.2120    6.4220 O.3    32  G32        -0.3846
    927  C1'       17.8660   15.2320    5.7430 C.3    32  G32         0.1667
    928  N9        17.2060   14.0600    6.3580 N.ar   32  G32        -0.2854
    929  C8        17.4360   12.7250    6.1460 C.ar   32  G32         0.1005
    930  N7        16.6800   11.9360    6.8580 N.ar   32  G32        -0.2286
    931  C5        15.8860   12.8120    7.5980 C.ar   32  G32         0.1721
    932  C6        14.8640   12.5430    8.5520 C.ar   32  G32         0.2803
    933  O6        14.4420   11.4570    8.9420 O.2    32  G32        -0.2654
    934  N1        14.3220   13.7110    9.0720 N.ar   32  G32        -0.2934
    935  C2        14.7080   14.9790    8.7140 C.ar   32  G32         0.1950
    936  N2        14.0860   15.9890    9.3190 N.pl3  32  G32        -0.3289
    937  N3        15.6560   15.2430    7.8110 N.ar   32  G32        -0.1963
    938  C4        16.2030   14.1140    7.2930 C.ar   32  G32         0.1712
    939  H5'       20.6520   13.8970    3.1530 H      32  G32         0.0591
    940 H5''       21.8990   14.1410    4.3960 H      32  G32         0.0591
    941  H4'       20.2990   15.9690    4.4940 H      32  G32         0.0647
    942  H3'       20.0210   14.0210    6.7920 H      32  G32         0.0655
    943  H2'       18.5420   15.7010    7.7660 H      32  G32         0.0666
    944 HO2'       19.7210   17.5720    6.9770 H      32  G32         0.2101
    945  H1'       17.1060   15.9640    5.4690 H      32  G32         0.0866
    946  H8        18.1760   12.3600    5.4480 H      32  G32         0.1030
    947  H1        13.5880   13.6100    9.7590 H      32  G32         0.1716
    948  H21       13.3760   15.8020   10.0120 H      32  G32         0.1451
    949  H22       14.3370   16.9380    9.0820 H      32  G32         0.1451
    950  P         21.8890   15.2950    8.3140 P.3    33  A33         0.2131
    951  OP1       23.1860   15.9950    8.4550 O.2    33  A33        -0.5172
    952  OP2       21.8310   13.8250    8.4850 O.3    33  A33        -0.4373
    953  O5'       20.8500   15.9600    9.3520 O.3    33  A33        -0.3248
    954  C5'       20.7030   17.3620    9.4350 C.3    33  A33         0.0837
    955  C4'       19.5950   17.7260   10.4190 C.3    33  A33         0.1139
    956  O4'       18.3190   17.2880    9.9770 O.3    33  A33        -0.3456
    957  C3'       19.7940   17.1150   11.8020 C.3    33  A33         0.1241
    958  O3'       20.7320   17.8100   12.5970 O.3    33  A33        -0.3187
    959  C2'       18.3780   17.2380   12.3410 C.3    33  A33         0.1292
    960  O2'       18.0750   18.5760   12.6910 O.3    33  A33        -0.3846
    961  C1'       17.5610   16.8750   11.1060 C.3    33  A33         0.1665
    962  N9        17.3370   15.4170   11.0680 N.ar   33  A33        -0.2877
    963  C8        17.9410   14.4690   10.2810 C.ar   33  A33         0.0999
    964  N7        17.5090   13.2550   10.4890 N.ar   33  A33        -0.2346
    965  C5        16.5500   13.4130   11.4890 C.ar   33  A33         0.1287
    966  C6        15.7080   12.5140   12.1690 C.3    33  A33         0.2004
    967  N6        15.6920   11.2030   11.9330 N.3    33  A33        -0.2985
    968  N1        14.8790   13.0020   13.1020 N.2    33  A33        -0.2420
    969  C2        14.8840   14.3040   13.3490 C.2    33  A33         0.1049
    970  N3        15.6140   15.2520   12.7860 N.pl3  33  A33        -0.1840
    971  C4        16.4430   14.7280   11.8500 C.ar   33  A33         0.1528
    972  H5'       20.4630   17.7650    8.4510 H      33  A33         0.0591
    973 H5''       21.6430   17.7970    9.7760 H      33  A33         0.0591
    974  H4'       19.5650   18.8090   10.5320 H      33  A33         0.0647
    975  H3'       20.0700   16.0640   11.7040 H      33  A33         0.0655
    976  H2'       18.1950   16.5570   13.1720 H      33  A33         0.0666
    977 HO2'       18.6700   18.8580   13.3900 H      33  A33         0.2101
    978  H1'       16.5980   17.3850   11.1310 H      33  A33         0.0866
    979  H8        18.7000   14.7120    9.5520 H      33  A33         0.1030
    980  H61       15.0590   10.6110   12.4500 H      33  A33         0.1209
    981  H62       16.3120   10.8100   11.2400 H      33  A33         0.1209
    982  H2        14.1930   14.6410   14.1070 H      33  A33         0.1015
    983  P         21.5110   17.0480   13.7810 P.3    34  U34         0.2131
    984  OP1       22.5000   17.9870   14.3580 O.3    34  U34        -0.4373
    985  OP2       21.9690   15.7370   13.2630 O.2    34  U34        -0.5172
    986  O5'       20.3710   16.7790   14.8900 O.3    34  U34        -0.3248
    987  C5'       19.7570   17.8530   15.5720 C.3    34  U34         0.0837
    988  C4'       18.6750   17.3350   16.5180 C.3    34  U34         0.1139
    989  O4'       17.5950   16.7230   15.8290 O.3    34  U34        -0.3456
    990  C3'       19.1860   16.2840   17.4960 C.3    34  U34         0.1241
    991  O3'       19.9420   16.8190   18.5630 O.3    34  U34        -0.3187
    992  C2'       17.8600   15.6950   17.9490 C.3    34  U34         0.1293
    993  O2'       17.1870   16.5740   18.8310 O.3    34  U34        -0.3846
    994  C1'       17.0950   15.6580   16.6260 C.3    34  U34         0.1680
    995  N1        17.3120   14.3490   15.9650 N.ar   34  U34        -0.2715
    996  C2        16.6090   13.2600   16.4670 C.ar   34  U34         0.3314
    997  O2        15.8200   13.3580   17.4060 O.2    34  U34        -0.2464
    998  N3        16.8410   12.0410   15.8530 N.ar   34  U34        -0.2749
    999  C4        17.7040   11.8140   14.7970 C.ar   34  U34         0.2539
   1000  O4        17.8460   10.6830   14.3370 O.2    34  U34        -0.2677
   1001  C5        18.3800   13.0020   14.3250 C.ar   34  U34         0.0192
   1002  C6        18.1700   14.2090   14.9050 C.ar   34  U34         0.0171
   1003  H5'       19.3110   18.5440   14.8570 H      34  U34         0.0591
   1004 H5''       20.5130   18.3850   16.1520 H      34  U34         0.0591
   1005  H4'       18.2780   18.1710   17.0930 H      34  U34         0.0647
   1006  H3'       19.7610   15.5360   16.9520 H      34  U34         0.0655
   1007  H2'       17.9780   14.7030   18.3830 H      34  U34         0.0666
   1008 HO2'       17.7310   16.7040   19.6110 H      34  U34         0.2101
   1009  H1'       16.0300   15.7910   16.8140 H      34  U34         0.0867
   1010  H3        16.3320   11.2450   16.2090 H      34  U34         0.1734
   1011  H5        19.0670   12.9190   13.4960 H      34  U34         0.0686
   1012  H6        18.6880   15.0760   14.5250 H      34  U34         0.0813
   1013  P         21.0250   15.9110   19.3280 P.3    35  A35         0.2131
   1014  OP1       21.7870   16.7850   20.2470 O.3    35  A35        -0.4373
   1015  OP2       21.7520   15.0970   18.3260 O.2    35  A35        -0.5172
   1016  O5'       20.1220   14.9190   20.2210 O.3    35  A35        -0.3248
   1017  C5'       19.3530   15.4090   21.2990 C.3    35  A35         0.0837
   1018  C4'       18.5340   14.2770   21.9280 C.3    35  A35         0.1139
   1019  O4'       17.5450   13.7620   21.0510 O.3    35  A35        -0.3456
   1020  C3'       19.3900   13.0920   22.3500 C.3    35  A35         0.1241
   1021  O3'       20.0930   13.3010   23.5550 O.3    35  A35        -0.3187
   1022  C2'       18.3090   12.0250   22.4740 C.3    35  A35         0.1292
   1023  O2'       17.5410   12.2000   23.6480 O.3    35  A35        -0.3846
   1024  C1'       17.4320   12.3600   21.2700 C.3    35  A35         0.1665
   1025  N9        17.9180   11.6260   20.0840 N.ar   35  A35        -0.2877
   1026  C8        18.6970   12.0810   19.0520 C.ar   35  A35         0.0999
   1027  N7        18.9700   11.1740   18.1540 N.ar   35  A35        -0.2346
   1028  C5        18.3130   10.0390   18.6220 C.ar   35  A35         0.1287
   1029  C6        18.1930    8.7230   18.1360 C.3    35  A35         0.2004
   1030  N6        18.7730    8.3040   17.0090 N.3    35  A35        -0.2985
   1031  N1        17.4610    7.8480   18.8390 N.2    35  A35        -0.2420
   1032  C2        16.8830    8.2520   19.9620 C.2    35  A35         0.1049
   1033  N3        16.9220    9.4460   20.5330 N.pl3  35  A35        -0.1840
   1034  C4        17.6650   10.3060   19.7960 C.ar   35  A35         0.1528
   1035  H5'       18.6760   16.1900   20.9520 H      35  A35         0.0591
   1036 H5''       20.0190   15.8300   22.0520 H      35  A35         0.0591
   1037  H4'       18.0300   14.6650   22.8140 H      35  A35         0.0647
   1038  H3'       20.0760   12.8350   21.5420 H      35  A35         0.0655
   1039  H2'       18.7280   11.0200   22.4070 H      35  A35         0.0666
   1040 HO2'       16.8770   11.5080   23.6920 H      35  A35         0.2101
   1041  H1'       16.4010   12.0670   21.4720 H      35  A35         0.0866
   1042  H8        19.0480   13.1000   18.9900 H      35  A35         0.1030
   1043  H61       18.6550    7.3440   16.7190 H      35  A35         0.1209
   1044  H62       19.3230    8.9440   16.4550 H      35  A35         0.1209
   1045  H2        16.3030    7.5020   20.4800 H      35  A35         0.1015
   1046  P         21.4370   12.4730   23.8740 P.3    36  A36         0.2131
   1047  OP1       21.9770   12.9540   25.1680 O.3    36  A36        -0.4373
   1048  OP2       22.3000   12.4870   22.6700 O.2    36  A36        -0.5172
   1049  O5'       20.8810   10.9770   24.0830 O.3    36  A36        -0.3248
   1050  C5'       20.0320   10.6790   25.1680 C.3    36  A36         0.0837
   1051  C4'       19.5270    9.2390   25.0700 C.3    36  A36         0.1139
   1052  O4'       18.7530    9.0310   23.8980 O.3    36  A36        -0.3456
   1053  C3'       20.6300    8.1920   25.0320 C.3    36  A36         0.1241
   1054  O3'       21.1900    7.9280   26.3010 O.3    36  A36        -0.3187
   1055  C2'       19.8380    7.0140   24.4880 C.3    36  A36         0.1292
   1056  O2'       18.9700    6.4770   25.4640 O.3    36  A36        -0.3846
   1057  C1'       18.9780    7.7070   23.4330 C.3    36  A36         0.1665
   1058  N9        19.6880    7.7350   22.1410 N.ar   36  A36        -0.2877
   1059  C8        20.3050    8.7870   21.5130 C.ar   36  A36         0.0999
   1060  N7        20.8560    8.4780   20.3700 N.ar   36  A36        -0.2346
   1061  C5        20.5730    7.1180   20.2290 C.ar   36  A36         0.1287
   1062  C6        20.8680    6.1670   19.2340 C.3    36  A36         0.2004
   1063  N6        21.5640    6.4440   18.1260 N.3    36  A36        -0.2985
   1064  N1        20.4350    4.9110   19.4080 N.2    36  A36        -0.2420
   1065  C2        19.7420    4.6130   20.4960 C.2    36  A36         0.1049
   1066  N3        19.3960    5.4020   21.5030 N.pl3  36  A36        -0.1840
   1067  C4        19.8540    6.6600   21.3010 C.ar   36  A36         0.1528
   1068  H5'       19.1800   11.3590   25.1670 H      36  A36         0.0591
   1069 H5''       20.5840   10.8010   26.1000 H      36  A36         0.0591
   1070  H4'       18.9010    9.0320   25.9380 H      36  A36         0.0647
   1071  H3'       21.3940    8.4980   24.3170 H      36  A36         0.0655
   1072  H2'       20.4820    6.2480   24.0570 H      36  A36         0.0666
   1073 HO2'       19.4980    6.0820   26.1610 H      36  A36         0.2101
   1074  H1'       18.0350    7.1740   23.3120 H      36  A36         0.0866
   1075  H8        20.3310    9.7820   21.9320 H      36  A36         0.1030
   1076  H61       21.7450    5.7050   17.4620 H      36  A36         0.1209
   1077  H62       21.9040    7.3810   17.9650 H      36  A36         0.1209
   1078  H2        19.4180    3.5860   20.5750 H      36  A36         0.1015
   1079  P         22.6790    7.3310   26.4330 P.3    37  U37         0.2131
   1080  OP1       23.0400    7.3190   27.8680 O.3    37  U37        -0.4373
   1081  OP2       23.5530    8.0370   25.4660 O.2    37  U37        -0.5172
   1082  O5'       22.5140    5.8090   25.9440 O.3    37  U37        -0.3248
   1083  C5'       21.7310    4.8960   26.6840 C.3    37  U37         0.0837
   1084  C4'       21.7120    3.5320   26.0010 C.3    37  U37         0.1139
   1085  O4'       21.0760    3.5690   24.7330 O.3    37  U37        -0.3456
   1086  C3'       23.1010    2.9690   25.7450 C.3    37  U37         0.1241
   1087  O3'       23.7110    2.4430   26.9060 O.3    37  U37        -0.3187
   1088  C2'       22.7680    1.9040   24.7120 C.3    37  U37         0.1293
   1089  O2'       22.1660    0.7750   25.3140 O.3    37  U37        -0.3846
   1090  C1'       21.7160    2.6340   23.8730 C.3    37  U37         0.1680
   1091  N1        22.3720    3.3170   22.7350 N.ar   37  U37        -0.2715
   1092  C2        22.7860    2.5210   21.6730 C.ar   37  U37         0.3314
   1093  O2        22.6090    1.3040   21.6520 O.2    37  U37        -0.2464
   1094  N3        23.4160    3.1700   20.6260 N.ar   37  U37        -0.2749
   1095  C4        23.6630    4.5310   20.5450 C.ar   37  U37         0.2539
   1096  O4        24.2390    5.0000   19.5680 O.2    37  U37        -0.2677
   1097  C5        23.1900    5.2860   21.6850 C.ar   37  U37         0.0192
   1098  C6        22.5720    4.6730   22.7230 C.ar   37  U37         0.0171
   1099  H5'       20.7110    5.2670   26.7760 H      37  U37         0.0591
   1100 H5''       22.1550    4.7820   27.6810 H      37  U37         0.0591
   1101  H4'       21.1720    2.8300   26.6370 H      37  U37         0.0647
   1102  H3'       23.7270    3.7360   25.2900 H      37  U37         0.0655
   1103  H2'       23.6370    1.6220   24.1190 H      37  U37         0.0666
   1104 HO2'       21.9880    0.1190   24.6370 H      37  U37         0.2101
   1105  H1'       20.9940    1.9120   23.4920 H      37  U37         0.0867
   1106  H3        23.7250    2.6030   19.8510 H      37  U37         0.1734
   1107  H5        23.3340    6.3560   21.7020 H      37  U37         0.0686
   1108  H6        22.2250    5.2660   23.5560 H      37  U37         0.0813
   1109  P         25.3130    2.3380   27.0080 P.3    38  U38         0.2131
   1110  OP1       25.6590    1.9060   28.3810 O.3    38  U38        -0.4373
   1111  OP2       25.9060    3.5810   26.4630 O.2    38  U38        -0.5172
   1112  O5'       25.6560    1.1320   26.0000 O.3    38  U38        -0.3248
   1113  C5'       25.2190   -0.1810   26.2820 C.3    38  U38         0.0838
   1114  C4'       25.6320   -1.1300   25.1560 C.3    38  U38         0.1165
   1115  O4'       24.9960   -0.8430   23.9170 O.3    38  U38        -0.3455
   1116  C3'       27.1260   -1.0970   24.8680 C.3    38  U38         0.1518
   1117  O3'       27.8970   -1.7670   25.8450 O.3    38  U38        -0.2255
   1118  C2'       27.1350   -1.7860   23.5140 C.3    38  U38         0.1319
   1119  O2'       26.9140   -3.1770   23.6470 O.3    38  U38        -0.3845
   1120  C1'       25.8990   -1.1640   22.8650 C.3    38  U38         0.1681
   1121  N1        26.2810    0.0510   22.1030 N.ar   38  U38        -0.2715
   1122  C2        26.8640   -0.1370   20.8580 C.ar   38  U38         0.3314
   1123  O2        27.0550   -1.2540   20.3790 O.2    38  U38        -0.2464
   1124  N3        27.2290    1.0070   20.1710 N.ar   38  U38        -0.2749
   1125  C4        27.0590    2.3080   20.6060 C.ar   38  U38         0.2539
   1126  O4        27.4280    3.2500   19.9100 O.2    38  U38        -0.2677
   1127  C5        26.4310    2.4140   21.9040 C.ar   38  U38         0.0192
   1128  C6        26.0700    1.3100   22.6030 C.ar   38  U38         0.0171
   1129  H5'       24.1350   -0.1980   26.3940 H      38  U38         0.0591
   1130 H5''       25.6730   -0.5170   27.2140 H      38  U38         0.0591
   1131  H4'       25.3710   -2.1480   25.4480 H      38  U38         0.0648
   1132  H3'       27.4490   -0.0610   24.7630 H      38  U38         0.0683
   1133  H2'       28.0450   -1.5740   22.9520 H      38  U38         0.0667
   1134 HO2'       27.6550   -3.5600   24.1230 H      38  U38         0.2101
   1135  H1'       25.4490   -1.8840   22.1820 H      38  U38         0.0867
   1136  H3        27.6610    0.8820   19.2670 H      38  U38         0.1734
   1137  H5        26.2530    3.3930   22.3220 H      38  U38         0.0686
   1138  H6        25.6000    1.4230   23.5680 H      38  U38         0.0813
@<TRIPOS>BOND
     1   376   375    2
     2   345   344    2
     3   365   348    1
     4   364   348    1
     5   352   375    1
     6   352   351    1
     7   348   349    1
     8   348   347    1
     9   375   377    1
    10   375   378    1
    11   396   379    1
    12   366   349    1
    13   344   322    1
    14   344   347    1
    15   344   346    1
    16   322   321    1
    17   395   379    1
    18   335   318    1
    19   407   406    2
    20   349   351    1
    21   349   350    1
    22   336   319    1
    23   379   378    1
    24   379   380    1
    25   369   354    1
    26   591   579    1
    27   351   367    1
    28   351   353    1
    29   324   339    1
    30   324   323    1
    31   354   353    1
    32   578   577    2
    33   315   314    2
    34   318   319    1
    35   318   334    1
    36   318   317    1
    37   588   573    1
    38   319   321    1
    39   319   320    1
    40   321   323    1
    41   321   337    1
    42   383   406    1
    43   383   382    1
    44   579   577   ar
    45   579   580   ar
    46   406   408    1
    47   406   409    1
    48   397   380    1
    49   581   580    2
    50   350   355    1
    51   589   574    1
    52   380   382    1
    53   380   381    1
    54   353   368    1
    55   353   355    1
    56   577   576   ar
    57   323   338    1
    58   323   325    1
    59   580   582   ar
    60   574   573    1
    61   382   398    1
    62   382   384    1
    63   573   571    1
    64   573   575    1
    65   317   314    1
    66   430   410    1
    67   320   325    1
    68   355   370    1
    69   355   356    1
    70   314   292    1
    71   314   316    1
    72   572   571    1
    73   374   363    1
    74   576   575    1
    75   576   583   ar
    76   409   410    1
    77   429   410    1
    78   381   386    1
    79   587   571    1
    80   325   340    1
    81   325   326    1
    82   292   291    1
    83   571   569    1
    84   410   411    1
    85   582   583   ar
    86   582   592    1
    87   294   309    1
    88   294   293    1
    89   405   394    1
    90   590   575    1
    91   575   570    1
    92   441   440    2
    93   583   593    1
    94   442   440    1
    95   385   384    1
    96   385   400    1
    97   384   386    1
    98   384   399    1
    99   363   356   ar
   100   363   362   ar
   101   356   357   ar
   102   306   289    1
   103   386   401    1
   104   386   387    1
   105   440   414    1
   106   440   443    1
   107   551   550    2
   108   394   387   ar
   109   394   393   ar
   110   293   291    1
   111   293   308    1
   112   293   295    1
   113   326   333   ar
   114   326   327   ar
   115   291   289    1
   116   291   307    1
   117   343   333    1
   118   561   549    1
   119   614   595    1
   120   404   393    1
   121   414   413    1
   122   621   604    1
   123   305   288    1
   124   328   327    2
   125   569   570    1
   126   569   586    1
   127   569   568    1
   128   594   595    1
   129   411   431    1
   130   411   413    1
   131   411   412    1
   132   432   413    1
   133   289   288    1
   134   289   290    1
   135   373   362    1
   136   362   360   ar
   137   387   388   ar
   138   333   332   ar
   139   393   391   ar
   140   357   358    2
   141   357   359   ar
   142   436   419    1
   143   605   604   ar
   144   605   606   ar
   145   413   415    1
   146   327   329   ar
   147   549   550   ar
   148   549   547   ar
   149   550   552   ar
   150   595   615    1
   151   595   596    1
   152   604   603   ar
   153   288   304    1
   154   288   287    1
   155   567   568    1
   156   567   564    1
   157   310   295    1
   158   585   568    1
   159   412   417    1
   160   295   290    1
   161   295   296    1
   162   568   584    1
   163   443   444    1
   164   566   564    2
   165   531   520    1
   166   608   607    2
   167   597   596    1
   168   597   602    1
   169   472   470    2
   170   548   547    2
   171   419   420   ar
   172   419   418   ar
   173   547   546   ar
   174   461   444    1
   175   360   359   ar
   176   360   361    1
   177   298   297    2
   178   606   607   ar
   179   606   613   ar
   180   285   284    2
   181   332   342    1
   182   332   330   ar
   183   819   806    1
   184   530   520    1
   185   552   562    1
   186   552   553   ar
   187   878   863    1
   188   388   389    2
   189   388   390   ar
   190   329   341    1
   191   329   330   ar
   192   391   390   ar
   193   391   392    1
   194   558   543    1
   195   596   616    1
   196   596   598    1
   197   287   284    1
   198   603   602    1
   199   603   613   ar
   200   852   839    1
   201   564   565    1
   202   564   542    1
   203   420   421   ar
   204   520   519    1
   205   875   858    1
   206   607   609   ar
   207   785   773    1
   208   468   458    1
   209   879   864    1
   210   848   831    1
   211   415   417    1
   212   415   416    1
   213   415   433    1
   214   444   460    1
   215   444   445    1
   216   863   862    1
   217   830   847    1
   218   830   829    1
   219   403   392    1
   220   471   470    1
   221   417   418    1
   222   417   435    1
   223   296   297   ar
   224   296   303   ar
   225   297   299   ar
   226   418   428   ar
   227   330   331    2
   228   617   598    1
   229   602   620    1
   230   602   600    1
   231   613   612   ar
   232   278   261    1
   233   416   434    1
   234   470   448    1
   235   470   473    1
   236   392   402    1
   237   546   553   ar
   238   546   545    1
   239   786   773    1
   240   859   864    1
   241   859   858    1
   242   840   839    1
   243   840   841    1
   244   806   807    1
   245   806   805    2
   246   553   563    1
   247   284   259    1
   248   284   286    1
   249   557   541    1
   250   361   372    1
   251   361   371    1
   252   463   447    1
   253   469   459    1
   254   839   838    2
   255   873   857    1
   256   773   772    1
   257   501   487    1
   258   532   521    1
   259   864   862    1
   260   864   865    1
   261   858   857    1
   262   858   860    1
   263   598   600    1
   264   598   599    1
   265   543   541    1
   266   543   545    1
   267   543   544    1
   268   458   459   ar
   269   458   456   ar
   270   519   521   ar
   271   519   518   ar
   272   831   829    1
   273   831   826    1
   274   831   832    1
   275   313   303    1
   276   807   808    1
   277   905   887    1
   278   448   447    1
   279   653   643    1
   280   844   825    1
   281   784   771    1
   282   805   803    1
   283   303   302   ar
   284   609   622    1
   285   609   610   ar
   286   421   428   ar
   287   421   422   ar
   288   505   503    2
   289   542   541    1
   290   862   860    1
   291   862   877    1
   292   814   797    1
   293   559   544    1
   294   829   846    1
   295   829   827    1
   296   261   260    1
   297   541   539    1
   298   642   641    2
   299   459   452   ar
   300   867   866    2
   301   447   445    1
   302   447   449    1
   303   907   888    1
   304   521   522   ar
   305   826   825    1
   306   445   462    1
   307   445   446    1
   308   299   311    1
   309   299   300   ar
   310   857   874    1
   311   857   856    1
   312   259   258    1
   313   457   456    2
   314   536   534    2
   315   500   487    1
   316   428   427   ar
   317   545   560    1
   318   545   540    1
   319   487   486    1
   320   627   625    2
   321   600   618    1
   322   600   601    1
   323   612   610   ar
   324   838   836    1
   325   841   832   ar
   326   841   835   ar
   327   815   798    1
   328   277   260    1
   329   473   474    1
   330   456   455   ar
   331   599   625    1
   332   518   516   ar
   333   860   861    1
   334   860   876    1
   335   772   771   ar
   336   772   774   ar
   337   484   483   ar
   338   484   485   ar
   339   861   883    1
   340   832   833   ar
   341   889   888    1
   342   889   894    1
   343   825   827    1
   344   825   824    1
   345   771   769   ar
   346   610   611    1
   347   751   739    1
   348   865   866   ar
   349   865   872   ar
   350   643   641   ar
   351   643   644   ar
   352   887   888    1
   353   887   906    1
   354   887   886    1
   355   423   422    2
   356   641   640   ar
   357   866   868   ar
   358   797   796    1
   359   499   483    1
   360   260   258    1
   361   260   262    1
   362   888   890    1
   363   750   737    1
   364   446   451    1
   365   422   424   ar
   366   302   300   ar
   367   302   312    1
   368   911   894    1
   369   283   270    1
   370   808   802   ar
   371   808   799   ar
   372   537   534    1
   373   537   538    1
   374   803   804    1
   375   803   802    1
   376   300   301    2
   377   685   672    1
   378   827   828    1
   379   827   845    1
   380   817   804    1
   381   601   619    1
   382   828   853    1
   383   483   482   ar
   384   495   477    1
   385   625   626    1
   386   625   628    1
   387   522   533    1
   388   522   515   ar
   389   452   451    1
   390   452   453   ar
   391   258   276    1
   392   258   256    1
   393   503   504    1
   394   503   506    1
   395   503   478    1
   396   893   910    1
   397   893   892    1
   398   686   672    1
   399   486   485    1
   400   486   488    1
   401   534   535    1
   402   534   511    1
   403   493   474    1
   404   540   539    1
   405   427   425   ar
   406   856   853    1
   407   882   872    1
   408   485   491   ar
   409   842   824    1
   410   836   835    1
   411   836   837    1
   412   539   538    1
   413   539   556    1
   414   835   834   ar
   415   798   796    1
   416   798   799    1
   417   798   793    1
   418   894   892    1
   419   894   895    1
   420   526   510    1
   421   449   464    1
   422   449   451    1
   423   449   450    1
   424   774   775   ar
   425   872   871   ar
   426   654   644    1
   427   813   796    1
   428   804   818    1
   429   474   492    1
   430   474   475    1
   431   516   515   ar
   432   516   517    2
   433   739   752    1
   434   739   738    1
   435   672   671    1
   436   275   256    1
   437   271   270    1
   438   271   272    1
   439   455   453   ar
   440   455   467    1
   441   451   466    1
   442   270   269    2
   443   644   637   ar
   444   802   801   ar
   445   796   794    1
   446   770   769    2
   447   884   883    2
   448   769   768   ar
   449   824   843    1
   450   824   823    1
   451   611   623    1
   452   611   624    1
   453   799   800   ar
   454   886   883    1
   455   833   849    1
   456   833   834   ar
   457   737   738   ar
   458   737   735   ar
   459   736   735    2
   460   506   507    1
   461   538   555    1
   462   538   554    1
   463   883   885    1
   464   868   880    1
   465   868   869   ar
   466   715   705    1
   467   515   514    1
   468   640   652    1
   469   640   638   ar
   470   279   262    1
   471   424   425   ar
   472   424   437    1
   473   453   454    2
   474   527   512    1
   475   892   890    1
   476   892   909    1
   477   853   854    2
   478   853   855    1
   479   262   263    1
   480   262   257    1
   481   477   478    1
   482   477   475    1
   483   477   479    1
   484   890   891    1
   485   890   908    1
   486   256   257    1
   487   256   255    1
   488   850   837    1
   489   488   489    2
   490   425   426    1
   491   628   629    1
   492   793   792    1
   493   837   851    1
   494   738   740   ar
   495   482   491   ar
   496   482   481    1
   497   891   916    1
   498   450   465    1
   499   735   734   ar
   500   912   896    1
   501   716   705    1
   502   269   267    1
   503   510   511    1
   504   510   512    1
   505   510   508    1
   506   491   490    1
   507   895   896   ar
   508   895   904   ar
   509   274   255    1
   510   871   869   ar
   511   871   881    1
   512   272   263   ar
   513   272   266   ar
   514   775   768   ar
   515   775   765   ar
   516   705   704    1
   517   475   476    1
   518   475   494    1
   519   811   792    1
   520   768   767   ar
   521   637   638   ar
   522   637   636    1
   523   869   870    2
   524   939   920    1
   525   671   673    1
   526   671   670    1
   527   823   820    1
   528   263   264   ar
   529   801   800   ar
   530   800   816    1
   531   512   514    1
   532   512   513    1
   533   896   897   ar
   534   496   479    1
   535   645   629    1
   536   638   639    2
   537   476   481    1
   538   255   254    1
   539   255   273    1
   540   524   507    1
   541   794   792    1
   542   794   795    1
   543   794   812    1
   544   507   508    1
   545   507   523    1
   546   792   791    1
   547   782   764    1
   548   514   509    1
   549   514   529    1
   550   479   481    1
   551   479   480    1
   552   903   904    1
   553   903   902    1
   554   673   674    2
   555   904   898   ar
   556   489   490    1
   557   489   502    1
   558   629   646    1
   559   629   630    1
   560   481   498    1
   561   267   266    1
   562   267   268    1
   563   631   636    1
   564   631   630    1
   565   426   439    1
   566   426   438    1
   567   266   265   ar
   568   795   820    1
   569   508   509    1
   570   508   525    1
   571   669   670   ar
   572   669   668   ar
   573   740   741   ar
   574   670   676   ar
   575   917   916    2
   576   765   764    1
   577   765   766   ar
   578   780   762    1
   579   734   741   ar
   580   734   733   ar
   581   704   703   ar
   582   704   706   ar
   583   254   251    1
   584   897   898   ar
   585   916   919    1
   586   916   918    1
   587   648   632    1
   588   636   651    1
   589   636   634    1
   590   920   940    1
   591   920   919    1
   592   920   921    1
   593   264   265   ar
   594   264   280    1
   595   528   513    1
   596   703   701   ar
   597   763   781    1
   598   763   762    1
   599   764   762    1
   600   764   759    1
   601   767   766   ar
   602   281   268    1
   603   898   899    1
   604   820   821    2
   605   820   822    1
   606   902   915    1
   607   902   901    2
   608   941   921    1
   609   268   282    1
   610   630   632    1
   611   630   647    1
   612   741   731   ar
   613   922   921    1
   614   922   927    1
   615   762   760    1
   616   497   480    1
   617   252   251    2
   618   809   791    1
   619   674   687    1
   620   674   675    1
   621   791   810    1
   622   791   790    1
   623   921   923    1
   624   766   783    1
   625   632   634    1
   626   632   633    1
   627   717   706    1
   628   668   684    1
   629   668   667   ar
   630   733   732   ar
   631   706   707   ar
   632   657   655    2
   633   676   675    1
   634   676   667   ar
   635   251   253    1
   636   251   229    1
   637   901   899    1
   638   899   900    1
   639   634   649    1
   640   634   635    1
   641   946   929    1
   642   945   927    1
   643   790   787    1
   644   759   758    1
   645   701   702    2
   646   701   700   ar
   647   927   928    1
   648   927   925    1
   649   245   230    1
   650   731   732   ar
   651   731   730    1
   652   667   666    1
   653   732   749    1
   654   633   655    1
   655   929   928   ar
   656   929   930   ar
   657   760   779    1
   658   760   758    1
   659   760   761    1
   660   900   914    1
   661   900   913    1
   662   231   230    1
   663   231   246    1
   664   748   730    1
   665   707   700   ar
   666   707   718    1
   667   928   938   ar
   668   235   234    2
   669   923   925    1
   670   923   942    1
   671   923   924    1
   672   926   925    1
   673   926   944    1
   674   229   228    1
   675   655   658    1
   676   655   656    1
   677   248   236    1
   678   746   728    1
   679   700   699    1
   680   758   778    1
   681   758   757    1
   682   635   650    1
   683   230   228    1
   684   230   232    1
   685   925   943    1
   686   761   787    1
   687   730   728    1
   688   730   725    1
   689   930   931   ar
   690   747   729    1
   691   924   950    1
   692   787   789    2
   693   787   788    1
   694   658   659    1
   695   234   236   ar
   696   234   233   ar
   697   236   237   ar
   698   228   244    1
   699   228   226    1
   700   728   729    1
   701   728   726    1
   702   666   683    1
   703   666   661    1
   704   666   664    1
   705   938   931   ar
   706   938   937   ar
   707   661   660    1
   708   680   662    1
   709   931   932   ar
   710   714   699    1
   711     2     1    2
   712   238   237    2
   713   937   935   ar
   714   247   232    1
   715   699   697    1
   716   699   694    1
   717   237   239   ar
   718   712   697    1
   719   232   233    1
   720   232   227    1
   721   233   240   ar
   722   681   664    1
   723   756   757    1
   724   756   753    1
   725   757   776    1
   726   757   777    1
   727   725   724    1
   728   745   726    1
   729   677   659    1
   730   659   660    1
   731   659   678    1
   732   664   662    1
   733   664   665    1
   734   950   951    2
   735   950   952    1
   736   950   953    1
   737   690   688    2
   738   662   660    1
   739   662   663    1
   740   972   954    1
   741   243   226    1
   742   660   679    1
   743   726   724    1
   744   726   727    1
   745   932   933    2
   746   932   934   ar
   747   697   695    1
   748   697   698    1
   749   226   227    1
   750   226   225    1
   751   240   239   ar
   752   240   250    1
   753   239   249    1
   754   694   693    1
   755   711   695    1
   756   935   934   ar
   757   935   936    1
   758    24     5    1
   759   755   753    2
   760    35    34    2
   761   934   947    1
   762   949   936    1
   763   724   744    1
   764   724   723    1
   765     1     3    2
   766     1     4    1
   767   753   727    1
   768   753   754    1
   769   242   225    1
   770   691   688    1
   771   691   692    1
   772   721   719    2
   773   936   948    1
   774   953   954    1
   775   695   693    1
   776   695   696    1
   777   698   713    1
   778   954   973    1
   779   954   955    1
   780   722   723    1
   781   722   719    1
   782   665   682    1
   783   979   963    1
   784   688   663    1
   785   688   689    1
   786    23     5    1
   787   225   224    1
   788   225   241    1
   789   224   221    1
   790     5     4    1
   791     5     6    1
   792   693   692    1
   793   693   710    1
   794   956   955    1
   795   956   961    1
   796   723   742    1
   797   723   743    1
   798   217   207    1
   799    34    36    1
   800    34     9    1
   801    34    37    1
   802   719   696    1
   803   719   720    1
   804     9     8    1
   805   963   964   ar
   806   963   962   ar
   807   692   708    1
   808   692   709    1
   809   955   974    1
   810   955   957    1
   811    25     6    1
   812   964   965   ar
   813   223   221    2
   814   222   221    1
   815   221   198    1
   816   207   218    1
   817   207   206    1
   818     6     8    1
   819     6     7    1
   820    57    38    1
   821   205   206   ar
   822   205   203   ar
   823   962   961    1
   824   962   971   ar
   825   961   978    1
   826   961   959    1
   827   214   199    1
   828     8    26    1
   829     8    10    1
   830   981   967    1
   831   204   203    2
   832   206   208   ar
   833    68    67    2
   834   965   971   ar
   835   965   966    1
   836    37    38    1
   837   203   202   ar
   838    56    38    1
   839   975   957    1
   840    38    39    1
   841   957   959    1
   842   957   958    1
   843    69    67    1
   844   971   970    1
   845   967   966    1
   846   967   980    1
   847     7    12    1
   848   215   200    1
   849   966   968    1
   850   198   197    1
   851   199   200    1
   852   199   197    1
   853   199   201    1
   854   213   197    1
   855    67    42    1
   856    67    70    1
   857   208   219    1
   858   208   209   ar
   859   959   960    1
   860   959   976    1
   861    11    10    1
   862    11    28    1
   863    30    14    1
   864    10    12    1
   865    10    27    1
   866   202   209   ar
   867   202   201    1
   868   197   195    1
   869   958   983    1
   870    42    41    1
   871   960   977    1
   872   970   969    1
   873   209   220    1
   874    59    41    1
   875   968   969    2
   876    12    29    1
   877    12    13    1
   878    39    58    1
   879    39    41    1
   880    39    40    1
   881   201   216    1
   882   201   196    1
   883   985   983    2
   884   969   982    1
   885    41    43    1
   886   177   176    2
   887    14    13   ar
   888    14    15   ar
   889  1011  1001    1
   890    98    97    2
   891    63    47    1
   892    70    71    1
   893    99    97    1
   894   983   984    1
   895   983   986    1
   896    13    22   ar
   897    88    71    1
   898   192   190    2
   899   195   196    1
   900   195   212    1
   901   195   194    1
   902    40    45    1
   903   176   175   ar
   904   176   178   ar
   905   193   194    1
   906   193   190    1
   907   187   175    1
   908    15    16   ar
   909  1001   999   ar
   910  1001  1002   ar
   911  1000   999    2
   912    97    75    1
   913    97   100    1
   914    71    87    1
   915    71    72    1
   916  1012  1002    1
   917    47    48   ar
   918    47    46   ar
   919   188   178    1
   920   211   194    1
   921   175   173   ar
   922   158   144    1
   923   999   998   ar
   924   194   210    1
   925   190   191    1
   926   190   168    1
   927  1003   987    1
   928    95    85    1
   929   157   144    1
   930    43    45    1
   931    43    44    1
   932    43    60    1
   933   129   127    2
   934   986   987    1
   935   178   179   ar
   936  1002   995   ar
   937    61    44    1
   938    90    74    1
   939    48    49   ar
   940    75    74    1
   941    22    16   ar
   942    22    21    1
   943   144   143    1
   944    45    46    1
   945    45    62    1
   946    96    86    1
   947    16    17    1
   948   162   160    2
   949    46    55   ar
   950   987  1004    1
   951   987   988    1
   952   100   101    1
   953    74    72    1
   954    74    76    1
   955   184   169    1
   956   173   174    2
   957   173   172   ar
   958   183   167    1
   959    85    86   ar
   960    85    83   ar
   961   118   101    1
   962    72    89    1
   963    72    73    1
   964   989   988    1
   965   989   994    1
   966   998  1010    1
   967   998   996   ar
   968   179   172   ar
   969   179   189    1
   970   128   127    1
   971   125   115    1
   972    21    20    1
   973   995   996   ar
   974   995   994    1
   975    86    79   ar
   976   127   105    1
   977   127   130    1
   978   143   142    1
   979   143   145    1
   980   172   171    1
   981   141   142   ar
   982   141   140   ar
   983    49    55   ar
   984    49    50    1
   985   168   167    1
   986   101   117    1
   987   101   102    1
   988    65    51    1
   989  1044  1030    1
   990   120   104    1
   991    84    83    2
   992   996   997    2
   993    32    18    1
   994   167   169    1
   995   167   165    1
   996   988  1005    1
   997   988   990    1
   998    55    54    1
   999   169   171    1
  1000   169   170    1
  1001   994  1009    1
  1002   994   992    1
  1003    73    78    1
  1004    83    82   ar
  1005    17    18    1
  1006    17    19    1
  1007   142   148   ar
  1008   160   163    1
  1009   160   161    1
  1010   160   135    1
  1011  1043  1030    1
  1012   115   113   ar
  1013   115   116   ar
  1014   114   113    2
  1015   145   146    2
  1016   163   164    1
  1017   126   116    1
  1018  1006   990    1
  1019   105   104    1
  1020   152   134    1
  1021   130   131    1
  1022  1030  1029    1
  1023    20    19    2
  1024    20    33    1
  1025    76    91    1
  1026    76    78    1
  1027    76    77    1
  1028    18    31    1
  1029   156   140    1
  1030   140   139   ar
  1031   185   170    1
  1032    79    78    1
  1033    79    80   ar
  1034   113   112   ar
  1035    51    50    1
  1036    51    64    1
  1037   104   102    1
  1038   104   106    1
  1039   171   186    1
  1040   171   166    1
  1041   116   109   ar
  1042    50    52    1
  1043    78    93    1
  1044  1076  1063    1
  1045   990   992    1
  1046   990   991    1
  1047   102   119    1
  1048   102   103    1
  1049    92    77    1
  1050    54    53    1
  1051   148   139   ar
  1052   148   147    1
  1053    82    80   ar
  1054    82    94    1
  1055   181   164    1
  1056   146   159    1
  1057   146   147    1
  1058   165   164    1
  1059   165   166    1
  1060   165   182    1
  1061   164   180    1
  1062   135   134    1
  1063   992  1007    1
  1064   992   993    1
  1065   150   131    1
  1066   153   136    1
  1067  1077  1063    1
  1068   134   136    1
  1069   134   132    1
  1070   139   138    1
  1071    80    81    2
  1072  1063  1062    1
  1073  1029  1028    1
  1074  1029  1031    1
  1075  1027  1028   ar
  1076  1027  1026   ar
  1077   131   149    1
  1078   131   132    1
  1079   112   124    1
  1080   112   110   ar
  1081  1015  1013    2
  1082   109   110   ar
  1083   109   108    1
  1084   121   106    1
  1085    52    53    2
  1086   103   108    1
  1087   991  1013    1
  1088    53    66    1
  1089   106   108    1
  1090   106   107    1
  1091  1028  1034   ar
  1092   136   138    1
  1093   136   137    1
  1094   993  1008    1
  1095  1031  1032    2
  1096   132   133    1
  1097   132   151    1
  1098   110   111    2
  1099   108   123    1
  1100  1042  1026    1
  1101  1026  1025   ar
  1102   138   133    1
  1103   138   155    1
  1104  1062  1064    1
  1105  1062  1061    1
  1106  1136  1124    1
  1107  1013  1016    1
  1108  1013  1014    1
  1109  1064  1065    2
  1110  1096  1095    2
  1111   107   122    1
  1112  1034  1025   ar
  1113  1034  1033    1
  1114   137   154    1
  1115  1106  1094    1
  1116  1126  1125    2
  1117  1032  1045    1
  1118  1032  1033    1
  1119  1025  1024    1
  1120  1124  1125   ar
  1121  1124  1122   ar
  1122  1016  1017    1
  1123  1061  1060   ar
  1124  1061  1067   ar
  1125  1060  1059   ar
  1126  1123  1122    2
  1127  1065  1078    1
  1128  1065  1066    1
  1129  1095  1094   ar
  1130  1095  1097   ar
  1131  1125  1127   ar
  1132  1094  1092   ar
  1133  1122  1121   ar
  1134  1035  1017    1
  1135  1019  1024    1
  1136  1019  1018    1
  1137  1024  1041    1
  1138  1024  1022    1
  1139  1017  1018    1
  1140  1017  1036    1
  1141  1067  1066    1
  1142  1067  1058   ar
  1143  1059  1075    1
  1144  1059  1058   ar
  1145  1038  1020    1
  1146  1093  1092    2
  1147  1092  1091   ar
  1148  1097  1107    1
  1149  1097  1098   ar
  1150  1127  1137    1
  1151  1127  1128   ar
  1152  1018  1020    1
  1153  1018  1037    1
  1154  1121  1128   ar
  1155  1121  1120    1
  1156  1058  1057    1
  1157  1135  1120    1
  1158  1020  1022    1
  1159  1020  1021    1
  1160  1039  1022    1
  1161  1022  1023    1
  1162  1128  1138    1
  1163  1048  1046    2
  1164  1098  1091   ar
  1165  1098  1108    1
  1166  1091  1090    1
  1167  1120  1118    1
  1168  1120  1115    1
  1169  1133  1118    1
  1170  1074  1057    1
  1171  1057  1052    1
  1172  1057  1055    1
  1173  1105  1090    1
  1174  1118  1119    1
  1175  1118  1116    1
  1176  1021  1046    1
  1177  1119  1134    1
  1178  1023  1040    1
  1179  1090  1088    1
  1180  1090  1085    1
  1181  1046  1049    1
  1182  1046  1047    1
  1183  1052  1051    1
  1184  1115  1114    1
  1185  1072  1055    1
  1186  1049  1050    1
  1187  1103  1088    1
  1188  1071  1053    1
  1189  1055  1053    1
  1190  1055  1056    1
  1191  1104  1089    1
  1192  1088  1089    1
  1193  1088  1086    1
  1194  1085  1084    1
  1195  1132  1116    1
  1196  1116  1114    1
  1197  1116  1117    1
  1198  1053  1051    1
  1199  1053  1054    1
  1200  1051  1050    1
  1201  1051  1070    1
  1202  1114  1131    1
  1203  1114  1113    1
  1204  1068  1050    1
  1205  1050  1069    1
  1206  1102  1086    1
  1207  1056  1073    1
  1208  1081  1079    2
  1209  1086  1084    1
  1210  1086  1087    1
  1211  1082  1079    1
  1212  1082  1083    1
  1213  1112  1113    1
  1214  1112  1109    1
  1215  1084  1101    1
  1216  1084  1083    1
  1217  1113  1129    1
  1218  1113  1130    1
  1219  1054  1079    1
  1220  1079  1080    1
  1221  1111  1109    2
  1222  1083  1099    1
  1223  1083  1100    1
  1224  1087  1109    1
  1225  1109  1110    1
